36
Coordinates from ORCA-job /burg/berkelbach/users/eav2136/projects/peroxide_dissociation/05_range_separated_functional/wb97x-v-peroxide-dmso/wb97x-v-peroxide-dmso_opt E -1715.359897830360
  C      -0.074257      6.450078      3.546369
  S       1.489796      6.080482      2.755983
  C       1.149367      4.636622      1.833692
  C      -0.091366      4.003053      1.793384
  C      -0.258269      2.842695      1.059363
  C       0.800510      2.302714      0.339239
  C       2.028757      2.960408      0.342019
  C       2.207648      4.103303      1.091211
  C       0.662544      1.099418     -0.506902
  O       0.000000      0.000000      0.000000
  O       1.067139      0.987171     -1.623577
  O       0.000000      0.000000      1.415273
  C      -1.273888      0.000000      1.915906
  C      -1.222115      0.066428      3.388315
  O      -2.257429     -0.025858      1.238757
  C      -2.415439     -0.122896      4.085953
  C      -2.441959     -0.034377      5.458877
  C      -1.272751      0.254962      6.172985
  C      -0.081778      0.450607      5.475180
  C      -0.058904      0.354404      4.095446
  S      -1.426667      0.349861      7.907885
  C       0.243161      0.684954      8.461945
  H       0.104163      7.346077      4.140874
  H      -0.388823      5.643873      4.210020
  H      -0.853239      6.664434      2.813856
  H      -0.937000      4.405134      2.334216
  H      -1.235074      2.374970      1.027490
  H       2.845447      2.558826     -0.245767
  H       3.172953      4.596710      1.102483
  H      -3.317691     -0.339000      3.527072
  H      -3.371885     -0.188084      5.994647
  H       0.834798      0.682521      5.999887
  H       0.870469      0.518836      3.566025
  H       0.184541      0.737294      9.549091
  H       0.608645      1.640295      8.083742
  H       0.925075     -0.119495      8.184590
36
Coordinates from ORCA-job /burg/berkelbach/users/eav2136/projects/peroxide_dissociation/05_range_separated_functional/wb97x-v-peroxide-dmso/wb97x-v-peroxide-dmso_opt E -1715.360153823990
  C       0.244028      6.459648      3.687972
  S       1.733208      6.065428      2.768518
  C       1.277204      4.664906      1.819641
  C      -0.005879      4.115438      1.800441
  C      -0.267779      2.982938      1.045464
  C       0.738049      2.388118      0.288390
  C       2.010689      2.961818      0.272722
  C       2.282481      4.077722      1.039847
  C       0.503252      1.203295     -0.572403
  O      -0.144863      0.098628     -0.045554
  O       0.844865      1.095122     -1.714872
  O      -0.101407      0.089315      1.369266
  C      -1.334521     -0.188371      1.907591
  C      -1.271035     -0.092280      3.384624
  O      -2.286370     -0.502637      1.251956
  C      -2.348062     -0.605537      4.113482
  C      -2.363829     -0.518646      5.489356
  C      -1.304995      0.096330      6.174340
  C      -0.234917      0.619575      5.445875
  C      -0.218573      0.521797      4.062938
  S      -1.433839      0.155563      7.918869
  C       0.077257      0.971445      8.437300
  H       0.497151      7.329778      4.297686
  H      -0.048654      5.641035      4.348521
  H      -0.580355      6.725329      3.023652
  H      -0.811553      4.561364      2.371639
  H      -1.277836      2.586264      1.027063
  H       2.792126      2.512420     -0.332630
  H       3.282780      4.502047      1.040111
  H      -3.168417     -1.076104      3.581448
  H      -3.201067     -0.927658      6.048182
  H       0.592243      1.108280      5.946828
  H       0.616720      0.941464      3.512864
  H       0.032801      1.005683      9.528141
  H       0.134632      1.993005      8.056783
  H       0.960945      0.403897      8.139478
36
Coordinates from ORCA-job /burg/berkelbach/users/eav2136/projects/peroxide_dissociation/05_range_separated_functional/wb97x-v-peroxide-dmso/wb97x-v-peroxide-dmso_opt E -1715.360232082844
  C       0.281588      6.124613      4.027525
  S       1.720152      5.871791      2.981560
  C       1.263586      4.520308      1.955911
  C       0.005272      3.912867      1.979893
  C      -0.259717      2.827594      1.155758
  C       0.716977      2.344197      0.286983
  C       1.965451      2.970404      0.237466
  C       2.240758      4.039217      1.071689
  C       0.473898      1.204643     -0.635522
  O      -0.136850      0.060864     -0.146326
  O       0.703690      1.192508     -1.813374
  O      -0.068223      0.019722      1.266026
  C      -1.298205     -0.266052      1.815529
  C      -1.245287     -0.085162      3.288858
  O      -2.254475     -0.578681      1.162041
  C      -2.312899     -0.583165      4.045078
  C      -2.331551     -0.419349      5.416064
  C      -1.287605      0.261042      6.064825
  C      -0.227974      0.768507      5.308647
  C      -0.207555      0.592754      3.931374
  S      -1.416893      0.420962      7.807708
  C       0.041433      1.362920      8.267875
  H       0.548685      6.941595      4.703572
  H       0.056713      5.236224      4.622514
  H      -0.592537      6.424548      3.445638
  H      -0.777488      4.273209      2.638793
  H      -1.249702      2.378623      1.181562
  H       2.729131      2.598749     -0.441169
  H       3.223719      4.504499      1.044376
  H      -3.123499     -1.104632      3.544285
  H      -3.161583     -0.816655      5.996217
  H       0.587587      1.305720      5.780839
  H       0.620870      1.002951      3.360985
  H      -0.005958      1.466075      9.355578
  H       0.034869      2.359610      7.821117
  H       0.960100      0.833400      8.005635
36
Coordinates from ORCA-job /burg/berkelbach/users/eav2136/projects/peroxide_dissociation/05_range_separated_functional/wb97x-v-peroxide-dmso/wb97x-v-peroxide-dmso_opt E -1715.360913892154
  C       0.016748      6.272651      3.798464
  S       1.553700      5.941943      2.929801
  C       1.177488      4.544066      1.934072
  C      -0.086074      3.952695      1.868773
  C      -0.290013      2.833065      1.075091
  C       0.753708      2.302694      0.321066
  C       2.009818      2.911839      0.358264
  C       2.223836      4.013344      1.167115
  C       0.571363      1.135994     -0.579264
  O      -0.057731      0.002697     -0.093316
  O       0.907979      1.075116     -1.728302
  O      -0.025464     -0.021186      1.321206
  C      -1.297021     -0.094785      1.842872
  C      -1.236147      0.027225      3.319905
  O      -2.279084     -0.233462      1.170155
  C      -2.381845     -0.306058      4.050254
  C      -2.390288     -0.183631      5.425234
  C      -1.253966      0.285812      6.102973
  C      -0.112653      0.624222      5.373128
  C      -0.105523      0.492714      3.991398
  S      -1.374257      0.408450      7.849245
  C       0.233157      1.034126      8.348465
  H       0.230313      7.112658      4.463937
  H      -0.294537      5.417180      4.401927
  H      -0.780285      6.564954      3.112036
  H      -0.920138      4.351301      2.434667
  H      -1.283693      2.395360      1.031201
  H       2.824888      2.505520     -0.233521
  H       3.210543      4.467322      1.207916
  H      -3.263201     -0.663959      3.527569
  H      -3.283207     -0.449484      5.984973
  H       0.777428      0.994434      5.868637
  H       0.788729      0.768841      3.442100
  H       0.187388      1.124678      9.436488
  H       0.431292      2.019832      7.922694
  H       1.033228      0.338248      8.088309
36
Coordinates from ORCA-job /burg/berkelbach/users/eav2136/projects/peroxide_dissociation/05_range_separated_functional/wb97x-v-peroxide-dmso/wb97x-v-peroxide-dmso_opt E -1715.360857505876
  C       0.045042      6.140188      3.943386
  S       1.560425      5.861329      3.020897
  C       1.171784      4.495541      1.985686
  C      -0.100647      3.929084      1.890539
  C      -0.313310      2.832226      1.068587
  C       0.731657      2.298889      0.319870
  C       1.995551      2.886912      0.383297
  C       2.217366      3.966606      1.218531
  C       0.540688      1.153223     -0.604535
  O      -0.071336      0.003656     -0.134303
  O       0.882403      1.112871     -1.751912
  O      -0.030392     -0.051997      1.279915
  C      -1.298295     -0.122978      1.812151
  C      -1.225896      0.005505      3.286164
  O      -2.285922     -0.252604      1.147620
  C      -2.363203     -0.328394      4.027412
  C      -2.366321     -0.181545      5.399569
  C      -1.233264      0.314036      6.061959
  C      -0.098532      0.648826      5.321292
  C      -0.096583      0.492125      3.942629
  S      -1.352416      0.483967      7.804308
  C       0.218145      1.217267      8.271565
  H       0.255095      6.984234      4.603889
  H      -0.216892      5.273871      4.554069
  H      -0.784371      6.408362      3.286412
  H      -0.934914      4.329005      2.454091
  H      -1.313413      2.414645      1.000595
  H       2.810647      2.482125     -0.208307
  H       3.210234      4.402977      1.280324
  H      -3.244613     -0.701381      3.516563
  H      -3.254197     -0.444621      5.967458
  H       0.788542      1.040026      5.804447
  H       0.789590      0.773000      3.384109
  H       0.172982      1.338834      9.356039
  H       0.354891      2.198781      7.814129
  H       1.055952      0.561827      8.027085
36
Coordinates from ORCA-job /burg/berkelbach/users/eav2136/projects/peroxide_dissociation/05_range_separated_functional/wb97x-v-peroxide-dmso/wb97x-v-peroxide-dmso_opt E -1715.360971527190
  C       0.023069      6.111292      3.963021
  S       1.555705      5.814928      3.075028
  C       1.168502      4.464892      2.017167
  C      -0.106468      3.908476      1.902567
  C      -0.317473      2.823179      1.065013
  C       0.732512      2.290693      0.323642
  C       1.998445      2.870300      0.404550
  C       2.217954      3.939427      1.254171
  C       0.542583      1.152198     -0.610001
  O      -0.071763     -0.000375     -0.148115
  O       0.856089      1.132963     -1.765383
  O      -0.033000     -0.071841      1.265884
  C      -1.301998     -0.105398      1.802564
  C      -1.222307      0.014163      3.276008
  O      -2.292761     -0.227061      1.142143
  C      -2.355324     -0.322576      4.021580
  C      -2.355304     -0.169030      5.392973
  C      -1.223566      0.336379      6.048942
  C      -0.091635      0.670605      5.304227
  C      -0.092948      0.507511      3.926330
  S      -1.340790      0.522200      7.790388
  C       0.236138      1.246159      8.250068
  H       0.240475      6.924370      4.658753
  H      -0.283861      5.233171      4.534511
  H      -0.777665      6.429633      3.293200
  H      -0.943840      4.306139      2.462709
  H      -1.319348      2.413437      0.981203
  H       2.817571      2.468026     -0.182839
  H       3.212889      4.368265      1.330577
  H      -3.237951     -0.700064      3.516465
  H      -3.241026     -0.432437      5.963748
  H       0.794912      1.068563      5.782166
  H       0.789354      0.793028      3.364581
  H       0.179379      1.409162      9.328402
  H       0.394025      2.207286      7.757662
  H       1.065904      0.568758      8.041625
36
Coordinates from ORCA-job /burg/berkelbach/users/eav2136/projects/peroxide_dissociation/05_range_separated_functional/wb97x-v-peroxide-dmso/wb97x-v-peroxide-dmso_opt E -1715.361007955187
  C       0.010402      6.116402      3.960538
  S       1.562921      5.776021      3.123986
  C       1.170791      4.438847      2.050297
  C      -0.108384      3.894212      1.924002
  C      -0.324056      2.818094      1.075039
  C       0.725186      2.285735      0.332211
  C       1.996420      2.851777      0.427027
  C       2.220258      3.911212      1.288476
  C       0.527362      1.158626     -0.614884
  O      -0.070921     -0.004158     -0.157573
  O       0.835790      1.150575     -1.771907
  O      -0.030301     -0.079907      1.255454
  C      -1.299820     -0.116467      1.792997
  C      -1.220879      0.015310      3.266026
  O      -2.291121     -0.224514      1.130371
  C      -2.349467     -0.327571      4.016152
  C      -2.347220     -0.167247      5.387203
  C      -1.218678      0.353051      6.037650
  C      -0.091180      0.693227      5.288593
  C      -0.094682      0.523797      3.911043
  S      -1.329689      0.539461      7.780000
  C       0.249723      1.261978      8.234399
  H       0.235867      6.897736      4.689854
  H      -0.358373      5.236189      4.491373
  H      -0.747812      6.491474      3.270673
  H      -0.945539      4.293406      2.484111
  H      -1.329160      2.416589      0.982628
  H       2.816170      2.448014     -0.159252
  H       3.218946      4.330433      1.374216
  H      -3.229560     -0.718779      3.516385
  H      -3.228674     -0.438258      5.961671
  H       0.794967      1.097494      5.762776
  H       0.785616      0.811100      3.346234
  H       0.198471      1.420964      9.313977
  H       0.403877      2.225429      7.744788
  H       1.079230      0.586163      8.018994
36
Coordinates from ORCA-job /burg/berkelbach/users/eav2136/projects/peroxide_dissociation/05_range_separated_functional/wb97x-v-peroxide-dmso/wb97x-v-peroxide-dmso_opt E -1715.361054021293
  C       0.011498      6.113558      3.953384
  S       1.553848      5.800673      3.087902
  C       1.166702      4.452898      2.025195
  C      -0.111929      3.906683      1.898296
  C      -0.323455      2.821327      1.059518
  C       0.729153      2.283087      0.325531
  C       2.000667      2.848300      0.422753
  C       2.220108      3.916923      1.274369
  C       0.533170      1.148878     -0.614284
  O      -0.059914     -0.012055     -0.146880
  O       0.831905      1.135870     -1.773823
  O      -0.024227     -0.071296      1.266236
  C      -1.296694     -0.092258      1.798289
  C      -1.221966      0.033302      3.272475
  O      -2.286243     -0.189313      1.130888
  C      -2.351419     -0.315410      4.019073
  C      -2.349528     -0.167739      5.391781
  C      -1.220990      0.346517      6.047533
  C      -0.093201      0.693789      5.301957
  C      -0.096098      0.536740      3.922715
  S      -1.330192      0.511120      7.792226
  C       0.246238      1.236264      8.253245
  H       0.227484      6.923884      4.653700
  H      -0.313206      5.237722      4.519313
  H      -0.776143      6.441360      3.272226
  H      -0.952064      4.312054      2.449846
  H      -1.327976      2.417032      0.967283
  H       2.823635      2.438692     -0.155383
  H       3.218562      4.337277      1.360150
  H      -3.230695     -0.704725      3.515963
  H      -3.230719     -0.445717      5.963671
  H       0.794153      1.090731      5.780587
  H       0.786131      0.825403      3.361045
  H       0.202879      1.364808      9.337423
  H       0.386273      2.214719      7.789483
  H       1.080732      0.575320      8.011843
36
Coordinates from ORCA-job /burg/berkelbach/users/eav2136/projects/peroxide_dissociation/05_range_separated_functional/wb97x-v-peroxide-dmso/wb97x-v-peroxide-dmso_opt E -1715.361070695096
  C       0.045814      6.139081      3.942880
  S       1.586308      5.804753      3.082611
  C       1.184124      4.460816      2.020905
  C      -0.100942      3.931166      1.890960
  C      -0.324507      2.848282      1.052258
  C       0.723077      2.295168      0.322510
  C       2.000972      2.844607      0.421679
  C       2.232020      3.910759      1.273083
  C       0.513957      1.162649     -0.616772
  O      -0.074792      0.001898     -0.144151
  O       0.798674      1.151252     -1.779478
  O      -0.034754     -0.057803      1.268604
  C      -1.304939     -0.103283      1.804210
  C      -1.226645      0.014457      3.278225
  O      -2.294345     -0.222131      1.140572
  C      -2.340601     -0.373441      4.028187
  C      -2.336296     -0.233517      5.401517
  C      -1.220997      0.311407      6.054673
  C      -0.109285      0.699529      5.305347
  C      -0.113818      0.548934      3.925608
  S      -1.328761      0.467186      7.799867
  C       0.223250      1.245308      8.256561
  H       0.269049      6.950501      4.639312
  H      -0.289618      5.269873      4.512530
  H      -0.736644      6.471716      3.258250
  H      -0.936949      4.347878      2.439857
  H      -1.333311      2.456059      0.958045
  H       2.819912      2.424194     -0.154000
  H       3.235365      4.318308      1.360649
  H      -3.209989     -0.786410      3.527125
  H      -3.205520     -0.541353      5.975998
  H       0.766172      1.124458      5.781351
  H       0.754823      0.869967      3.360669
  H       0.174679      1.380457      9.339498
  H       0.332500      2.224122      7.785605
  H       1.078494      0.609573      8.020784
36
Coordinates from ORCA-job /burg/berkelbach/users/eav2136/projects/peroxide_dissociation/05_range_separated_functional/wb97x-v-peroxide-dmso/wb97x-v-peroxide-dmso_opt E -1715.361092384745
  C       0.029248      6.160743      3.915531
  S       1.578636      5.807829      3.079073
  C       1.179441      4.461469      2.019240
  C      -0.106900      3.937641      1.879372
  C      -0.328404      2.853692      1.041480
  C       0.723149      2.293125      0.323412
  C       2.002933      2.835595      0.433223
  C       2.231482      3.902956      1.283779
  C       0.514879      1.159307     -0.614827
  O      -0.069272     -0.002113     -0.139167
  O       0.798795      1.146646     -1.777644
  O      -0.031952     -0.058592      1.273786
  C      -1.303343     -0.086730      1.807798
  C      -1.224593      0.024503      3.282121
  O      -2.293708     -0.188274      1.142965
  C      -2.341017     -0.359417      4.030143
  C      -2.334750     -0.228678      5.404280
  C      -1.215049      0.303316      6.060370
  C      -0.101480      0.689327      5.312656
  C      -0.107745      0.547251      3.932016
  S      -1.320769      0.446289      7.806762
  C       0.233541      1.216450      8.268985
  H       0.251225      6.969803      4.614974
  H      -0.325142      5.295866      4.480189
  H      -0.738575      6.502201      3.218881
  H      -0.945600      4.359981      2.419609
  H      -1.337857      2.465286      0.939515
  H       2.825235      2.408781     -0.132766
  H       3.236169      4.305023      1.379945
  H      -3.213676     -0.762801      3.527042
  H      -3.205714     -0.534119      5.977271
  H       0.776743      1.106157      5.790549
  H       0.762417      0.866098      3.368237
  H       0.187022      1.340166      9.353304
  H       0.343956      2.199969      7.808380
  H       1.087154      0.581673      8.025045
36
Coordinates from ORCA-job /burg/berkelbach/users/eav2136/projects/peroxide_dissociation/05_range_separated_functional/wb97x-v-peroxide-dmso/wb97x-v-peroxide-dmso_opt E -1715.361101656225
  C      -0.019191      6.181309      3.876557
  S       1.544656      5.813871      3.073913
  C       1.160410      4.458951      2.019356
  C      -0.125503      3.940766      1.857056
  C      -0.336010      2.852659      1.021557
  C       0.727040      2.282172      0.328789
  C       2.007895      2.815987      0.463427
  C       2.224637      3.887768      1.311673
  C       0.527344      1.145144     -0.608351
  O      -0.048199     -0.018497     -0.129513
  O       0.814689      1.130474     -1.770324
  O      -0.020911     -0.067438      1.283769
  C      -1.295658     -0.058881      1.810536
  C      -1.220552      0.054689      3.284870
  O      -2.285183     -0.127901      1.140421
  C      -2.345798     -0.308670      4.029709
  C      -2.339110     -0.182320      5.404236
  C      -1.209961      0.324689      6.063947
  C      -0.088590      0.693064      5.318883
  C      -0.095295      0.555133      3.937774
  S      -1.313416      0.455110      7.811476
  C       0.273900      1.146472      8.285999
  H       0.191691      6.998436      4.570003
  H      -0.386784      5.324571      4.445106
  H      -0.772627      6.516017      3.161216
  H      -0.972690      4.371517      2.377037
  H      -1.344832      2.467860      0.901301
  H       2.839772      2.379856     -0.081133
  H       3.229691      4.283894      1.426994
  H      -3.225240     -0.693685      3.523961
  H      -3.216511     -0.473235      5.975010
  H       0.796274      1.092852      5.799235
  H       0.781377      0.859014      3.375650
  H       0.226786      1.268057      9.370530
  H       0.435408      2.125110      7.830149
  H       1.096967      0.471606      8.044709
36
Coordinates from ORCA-job /burg/berkelbach/users/eav2136/projects/peroxide_dissociation/05_range_separated_functional/wb97x-v-peroxide-dmso/wb97x-v-peroxide-dmso_opt E -1715.361111447299
  C      -0.005252      6.149894      3.913373
  S       1.553859      5.792818      3.096822
  C       1.164977      4.446711      2.032697
  C      -0.121460      3.928863      1.873347
  C      -0.335529      2.846597      1.031189
  C       0.724135      2.282187      0.328213
  C       2.005217      2.816682      0.459280
  C       2.225707      3.882504      1.314113
  C       0.521485      1.150192     -0.614289
  O      -0.055889     -0.014963     -0.140757
  O       0.806863      1.141117     -1.776850
  O      -0.025130     -0.069715      1.272239
  C      -1.298672     -0.070287      1.802014
  C      -1.221114      0.046744      3.276122
  O      -2.288946     -0.154887      1.134621
  C      -2.342847     -0.321044      4.024338
  C      -2.335216     -0.187731      5.398292
  C      -1.208722      0.330725      6.053809
  C      -0.090313      0.701645      5.305620
  C      -0.098031      0.557098      3.925196
  S      -1.311164      0.472216      7.800590
  C       0.263009      1.199257      8.265589
  H       0.210221      6.957086      4.617086
  H      -0.370233      5.285431      4.471924
  H      -0.762519      6.495220      3.207141
  H      -0.966203      4.354846      2.401327
  H      -1.344874      2.462244      0.913520
  H       2.834419      2.385457     -0.093310
  H       3.231037      4.278902      1.426733
  H      -3.220529     -0.714072      3.521627
  H      -3.210049     -0.481396      5.971713
  H       0.792927      1.108696      5.783000
  H       0.776107      0.863801      3.360626
  H       0.222067      1.314378      9.351139
  H       0.397209      2.183774      7.813504
  H       1.099929      0.545430      8.013936
36
Coordinates from ORCA-job /burg/berkelbach/users/eav2136/projects/peroxide_dissociation/05_range_separated_functional/wb97x-v-peroxide-dmso/wb97x-v-peroxide-dmso_opt E -1715.361108779809
  C       0.002759      6.144133      3.922596
  S       1.559486      5.791085      3.099846
  C       1.167968      4.448083      2.032949
  C      -0.119345      3.932556      1.873281
  C      -0.335342      2.851358      1.030284
  C       0.723248      2.285566      0.326787
  C       2.004938      2.818843      0.457047
  C       2.227389      3.883577      1.312667
  C       0.519501      1.153644     -0.615504
  O      -0.060454     -0.010772     -0.142720
  O       0.801570      1.145869     -1.778832
  O      -0.027261     -0.068493      1.270208
  C      -1.299876     -0.080846      1.801920
  C      -1.221593      0.038395      3.275852
  O      -2.290336     -0.172178      1.135692
  C      -2.341657     -0.332113      4.025315
  C      -2.334241     -0.195455      5.398912
  C      -1.209625      0.329008      6.052883
  C      -0.092861      0.702495      5.303535
  C      -0.100365      0.554709      3.923492
  S      -1.313127      0.476843      7.798969
  C       0.257760      1.212559      8.261225
  H       0.219767      6.949497      4.627932
  H      -0.359389      5.277635      4.479871
  H      -0.757280      6.490685      3.219937
  H      -0.963175      4.359237      2.402147
  H      -1.345370      2.468763      0.912538
  H       2.833087      2.387095     -0.096690
  H       3.233253      4.278659      1.425020
  H      -3.217812     -0.729770      3.523609
  H      -3.207766     -0.491009      5.973323
  H       0.788770      1.114247      5.779781
  H       0.772344      0.863613      3.357953
  H       0.215670      1.333138      9.346131
  H       0.388588      2.195214      7.804106
  H       1.097256      0.560550      8.013468
36
Coordinates from ORCA-job /burg/berkelbach/users/eav2136/projects/peroxide_dissociation/05_range_separated_functional/wb97x-v-peroxide-dmso/wb97x-v-peroxide-dmso_opt E -1715.361113613751
  C       0.000326      6.135361      3.929015
  S       1.557464      5.783773      3.106399
  C       1.166276      4.442782      2.036830
  C      -0.121102      3.927989      1.875341
  C      -0.336966      2.848504      1.030077
  C       0.721913      2.283837      0.326167
  C       2.003797      2.816069      0.458549
  C       2.226000      3.879166      1.316289
  C       0.517815      1.153189     -0.617693
  O      -0.057687     -0.013157     -0.144551
  O       0.799822      1.146459     -1.781031
  O      -0.025189     -0.069041      1.268436
  C      -1.298054     -0.078033      1.799628
  C      -1.220044      0.042543      3.273479
  O      -2.288333     -0.170616      1.133318
  C      -2.340133     -0.327660      4.023059
  C      -2.333016     -0.189767      5.396524
  C      -1.208676      0.335614      6.050248
  C      -0.091960      0.708968      5.300745
  C      -0.099117      0.559870      3.920840
  S      -1.312699      0.484960      7.796161
  C       0.259776      1.217009      8.258792
  H       0.217028      6.939205      4.636176
  H      -0.362245      5.267739      4.484266
  H      -0.759289      6.483491      3.226681
  H      -0.965065      4.353912      2.404594
  H      -1.346914      2.465980      0.911186
  H       2.832215      2.384843     -0.095200
  H       3.231958      4.273557      1.430226
  H      -3.216066     -0.725950      3.521471
  H      -3.206538     -0.485079      5.971066
  H       0.789261      1.121859      5.776766
  H       0.773413      0.868869      3.355065
  H       0.216595      1.340291      9.343351
  H       0.394382      2.198139      7.799508
  H       1.097529      0.561743      8.013753
36
Coordinates from ORCA-job /burg/berkelbach/users/eav2136/projects/peroxide_dissociation/05_range_separated_functional/wb97x-v-peroxide-dmso/wb97x-v-peroxide-dmso_opt E -1715.361115555055
  C      -0.003386      6.136491      3.926580
  S       1.555672      5.781849      3.108920
  C       1.165149      4.441355      2.038470
  C      -0.122552      3.928279      1.874124
  C      -0.338054      2.849203      1.028224
  C       0.721601      2.283354      0.326451
  C       2.003922      2.813756      0.461708
  C       2.225664      3.876438      1.320103
  C       0.517644      1.152898     -0.617821
  O      -0.056645     -0.013954     -0.144539
  O       0.798208      1.146921     -1.781503
  O      -0.024413     -0.069782      1.268431
  C      -1.297343     -0.076011      1.799518
  C      -1.219134      0.044081      3.273397
  O      -2.287800     -0.166223      1.133137
  C      -2.339966     -0.324223      4.022819
  C      -2.332579     -0.186928      5.396333
  C      -1.207236      0.336074      6.050276
  C      -0.089700      0.707334      5.300938
  C      -0.097138      0.558826      3.920974
  S      -1.310898      0.484417      7.796266
  C       0.261991      1.215419      8.259104
  H       0.212791      6.939248      4.635143
  H      -0.369846      5.269248      4.479882
  H      -0.759840      6.486965      3.222001
  H      -0.967046      4.355307      2.401655
  H      -1.348172      2.467807      0.907074
  H       2.832940      2.381477     -0.090343
  H       3.231893      4.269515      1.436255
  H      -3.216643     -0.720554      3.520966
  H      -3.206635     -0.480824      5.970807
  H       0.792390      1.118137      5.777198
  H       0.776011      0.866217      3.355242
  H       0.220409      1.334854      9.344160
  H       0.395675      2.198209      7.803122
  H       1.099544      0.561241      8.010456
