18
Coordinates from ORCA-job /burg/berkelbach/users/eav2136/projects/peroxide_dissociation/05_range_separated_functional/wb97x-v-radical/wb97x-v-radical_opt E -857.631318596427
  C      -0.074257      6.450078      3.546369
  S       1.489796      6.080482      2.755983
  C       1.149367      4.636622      1.833692
  C      -0.091366      4.003053      1.793384
  C      -0.258269      2.842695      1.059363
  C       0.800510      2.302714      0.339239
  C       2.028757      2.960408      0.342019
  C       2.207648      4.103303      1.091211
  C       0.662544      1.099418     -0.506902
  O       0.000000      0.000000      0.000000
  O       1.067139      0.987171     -1.623577
  H       0.104163      7.346077      4.140874
  H      -0.388823      5.643873      4.210020
  H      -0.853239      6.664434      2.813856
  H      -0.937000      4.405134      2.334216
  H      -1.235074      2.374970      1.027490
  H       2.845447      2.558826     -0.245767
  H       3.172953      4.596710      1.102483
18
Coordinates from ORCA-job /burg/berkelbach/users/eav2136/projects/peroxide_dissociation/05_range_separated_functional/wb97x-v-radical/wb97x-v-radical_opt E -857.635088990768
  C      -0.071514      6.451447      3.560246
  S       1.480168      6.097165      2.733413
  C       1.141043      4.641651      1.820711
  C      -0.097681      3.999116      1.789758
  C      -0.263293      2.837637      1.049938
  C       0.795586      2.311563      0.318508
  C       2.032287      2.958917      0.335886
  C       2.205466      4.106268      1.082715
  C       0.648723      1.105318     -0.521650
  O      -0.075178      0.090043     -0.017239
  O       1.170190      0.901486     -1.585860
  H       0.107422      7.357300      4.141696
  H      -0.356916      5.647508      4.241348
  H      -0.873177      6.646835      2.845542
  H      -0.943254      4.395426      2.338022
  H      -1.233983      2.350888      1.032211
  H       2.853031      2.555084     -0.248326
  H       3.171375      4.602316      1.097033
18
Coordinates from ORCA-job /burg/berkelbach/users/eav2136/projects/peroxide_dissociation/05_range_separated_functional/wb97x-v-radical/wb97x-v-radical_opt E -857.635982339316
  C      -0.079682      6.453015      3.560354
  S       1.470174      6.110614      2.718693
  C       1.140287      4.640621      1.816330
  C      -0.092191      3.983156      1.795137
  C      -0.247644      2.817916      1.051151
  C       0.818499      2.309298      0.316328
  C       2.054728      2.963390      0.332447
  C       2.213716      4.114992      1.077858
  C       0.671634      1.084942     -0.497208
  O      -0.192766      0.233393     -0.056159
  O       1.170902      0.833252     -1.578649
  H       0.096157      7.362750      4.138323
  H      -0.351065      5.648121      4.247408
  H      -0.891071      6.640252      2.853440
  H      -0.939643      4.369424      2.350239
  H      -1.207784      2.306846      1.041553
  H       2.880832      2.561823     -0.247985
  H       3.175213      4.622165      1.094693
18
Coordinates from ORCA-job /burg/berkelbach/users/eav2136/projects/peroxide_dissociation/05_range_separated_functional/wb97x-v-radical/wb97x-v-radical_opt E -857.637371405099
  C      -0.073171      6.442090      3.568071
  S       1.472956      6.110248      2.717385
  C       1.138017      4.645399      1.811652
  C      -0.096130      3.994952      1.789332
  C      -0.258101      2.835481      1.041155
  C       0.804782      2.322923      0.305529
  C       2.039939      2.976956      0.315335
  C       2.206169      4.122232      1.066714
  C       0.652245      1.089967     -0.497157
  O      -0.198732      0.215138     -0.056930
  O       1.254040      0.776756     -1.508850
  H       0.107890      7.338381      4.163674
  H      -0.346710      5.624642      4.238091
  H      -0.884135      6.647152      2.866741
  H      -0.939837      4.382894      2.346947
  H      -1.220089      2.332488      1.027064
  H       2.862487      2.573353     -0.266267
  H       3.168675      4.624916      1.085468
18
Coordinates from ORCA-job /burg/berkelbach/users/eav2136/projects/peroxide_dissociation/05_range_separated_functional/wb97x-v-radical/wb97x-v-radical_opt E -857.638040952703
  C      -0.068332      6.434000      3.578258
  S       1.464381      6.126501      2.695853
  C       1.134472      4.655116      1.800168
  C      -0.097521      4.001704      1.782176
  C      -0.257159      2.839203      1.040233
  C       0.805532      2.325619      0.305929
  C       2.039673      2.979502      0.316057
  C       2.203826      4.129607      1.060073
  C       0.651847      1.086244     -0.486590
  O      -0.269548      0.237619     -0.124971
  O       1.317703      0.732945     -1.444909
  H       0.102245      7.346976      4.150928
  H      -0.302030      5.623538      4.271016
  H      -0.901561      6.601682      2.893341
  H      -0.941904      4.391499      2.336723
  H      -1.218963      2.336294      1.025844
  H       2.862781      2.573187     -0.262792
  H       3.164852      4.634733      1.076617
18
Coordinates from ORCA-job /burg/berkelbach/users/eav2136/projects/peroxide_dissociation/05_range_separated_functional/wb97x-v-radical/wb97x-v-radical_opt E -857.639141934964
  C      -0.069902      6.445090      3.570236
  S       1.467253      6.123204      2.701545
  C       1.136844      4.649948      1.808955
  C      -0.089128      3.985339      1.808551
  C      -0.249284      2.825797      1.063646
  C       0.806327      2.326396      0.310169
  C       2.033450      2.989639      0.304848
  C       2.199433      4.137545      1.051421
  C       0.646190      1.086854     -0.476200
  O      -0.341055      0.272080     -0.257057
  O       1.385754      0.681117     -1.364211
  H       0.109795      7.345964      4.158991
  H      -0.326106      5.627815      4.246656
  H      -0.891342      6.638881      2.878232
  H      -0.927260      4.364617      2.379195
  H      -1.207009      2.314515      1.058079
  H       2.850683      2.589655     -0.286786
  H       3.155653      4.651511      1.057683
18
Coordinates from ORCA-job /burg/berkelbach/users/eav2136/projects/peroxide_dissociation/05_range_separated_functional/wb97x-v-radical/wb97x-v-radical_opt E -857.639872470459
  C      -0.062067      6.437897      3.583775
  S       1.457975      6.141907      2.676365
  C       1.129537      4.662227      1.792949
  C      -0.095321      3.994725      1.800378
  C      -0.252323      2.830915      1.062729
  C       0.805990      2.328712      0.315580
  C       2.030908      2.993170      0.302641
  C       2.193495      4.149036      1.037788
  C       0.636522      1.082636     -0.446928
  O      -0.379016      0.314581     -0.391235
  O       1.442845      0.601616     -1.253003
  H       0.110843      7.350995      4.155451
  H      -0.277749      5.623529      4.277605
  H      -0.907282      6.601361      2.912764
  H      -0.932217      4.374885      2.372375
  H      -1.207026      2.313261      1.059182
  H       2.848166      2.586551     -0.284910
  H       3.147013      4.667967      1.040444
18
Coordinates from ORCA-job /burg/berkelbach/users/eav2136/projects/peroxide_dissociation/05_range_separated_functional/wb97x-v-radical/wb97x-v-radical_opt E -857.640225827304
  C      -0.070675      6.451870      3.563738
  S       1.470703      6.120671      2.705342
  C       1.138365      4.646349      1.814393
  C      -0.083421      3.972387      1.832059
  C      -0.244546      2.814103      1.085872
  C       0.805746      2.325797      0.317634
  C       2.028286      2.996448      0.294908
  C       2.194865      4.145569      1.039842
  C       0.630589      1.090861     -0.459827
  O      -0.392884      0.342359     -0.413170
  O       1.448450      0.609267     -1.263265
  H       0.111738      7.348911      4.157562
  H      -0.338055      5.633673      4.234831
  H      -0.885434      6.655189      2.866431
  H      -0.913985      4.342373      2.419941
  H      -1.194935      2.289009      1.092252
  H       2.839937      2.601332     -0.308073
  H       3.145553      4.669798      1.033482
18
Coordinates from ORCA-job /burg/berkelbach/users/eav2136/projects/peroxide_dissociation/05_range_separated_functional/wb97x-v-radical/wb97x-v-radical_opt E -857.640429373988
  C      -0.066962      6.454743      3.568602
  S       1.469690      6.119911      2.702703
  C       1.134465      4.645404      1.812904
  C      -0.087919      3.970390      1.831690
  C      -0.248477      2.809616      1.087861
  C       0.802514      2.320118      0.320132
  C       2.025261      2.992282      0.295985
  C       2.191069      4.142679      1.039180
  C       0.628639      1.091685     -0.465375
  O      -0.403135      0.371604     -0.453551
  O       1.478042      0.599053     -1.243948
  H       0.109510      7.372002      4.132848
  H      -0.315483      5.654568      4.268159
  H      -0.892115      6.625093      2.874612
  H      -0.918156      4.340349      2.420416
  H      -1.196652      2.280520      1.097510
  H       2.838476      2.598447     -0.305716
  H       3.141529      4.667503      1.029943
18
Coordinates from ORCA-job /burg/berkelbach/users/eav2136/projects/peroxide_dissociation/05_range_separated_functional/wb97x-v-radical/wb97x-v-radical_opt E -857.640465608320
  C      -0.064261      6.449138      3.573168
  S       1.465208      6.129323      2.689520
  C       1.131323      4.653214      1.803343
  C      -0.089355      3.975552      1.827235
  C      -0.250316      2.813127      1.086930
  C       0.799763      2.320719      0.320516
  C       2.022181      2.993957      0.293853
  C       2.187204      4.148870      1.030327
  C       0.627139      1.088140     -0.460148
  O      -0.421639      0.395100     -0.498590
  O       1.510277      0.562191     -1.183219
  H       0.115766      7.358997      4.148076
  H      -0.305979      5.639259      4.264003
  H      -0.895356      6.627436      2.888407
  H      -0.918234      4.345069      2.418175
  H      -1.196916      2.281531      1.101728
  H       2.836509      2.599442     -0.305955
  H       3.136981      4.674903      1.016583
18
Coordinates from ORCA-job /burg/berkelbach/users/eav2136/projects/peroxide_dissociation/05_range_separated_functional/wb97x-v-radical/wb97x-v-radical_opt E -857.640446498102
  C      -0.059272      6.437122      3.584250
  S       1.457708      6.143391      2.670641
  C       1.126243      4.665595      1.787376
  C      -0.095695      3.990339      1.808999
  C      -0.255724      2.824553      1.074635
  C       0.797642      2.322907      0.319662
  C       2.020922      2.994974      0.292749
  C       2.183840      4.156287      1.019888
  C       0.628234      1.079990     -0.445022
  O      -0.424346      0.402393     -0.510471
  O       1.529945      0.530767     -1.131385
  H       0.122937      7.339767      4.169695
  H      -0.282921      5.614946      4.266726
  H      -0.903188      6.618373      2.916096
  H      -0.926223      4.364061      2.394966
  H      -1.202711      2.293485      1.089524
  H       2.838569      2.595882     -0.299669
  H       3.134335      4.681136      1.005294
18
Coordinates from ORCA-job /burg/berkelbach/users/eav2136/projects/peroxide_dissociation/05_range_separated_functional/wb97x-v-radical/wb97x-v-radical_opt E -857.640441335964
  C      -0.057951      6.433853      3.588576
  S       1.455682      6.146171      2.667460
  C       1.125367      4.667973      1.784187
  C      -0.097630      3.994695      1.802237
  C      -0.256928      2.828075      1.069093
  C       0.797748      2.324115      0.317579
  C       2.021080      2.995784      0.291583
  C       2.183629      4.157470      1.018280
  C       0.630411      1.077081     -0.441636
  O      -0.424912      0.399601     -0.501748
  O       1.531541      0.525395     -1.123712
  H       0.122833      7.337855      4.172362
  H      -0.273594      5.611038      4.272771
  H      -0.906501      6.610254      2.925025
  H      -0.929852      4.370525      2.384263
  H      -1.205184      2.299160      1.081249
  H       2.839780      2.595850     -0.298730
  H       3.134777      4.681073      1.005113
18
Coordinates from ORCA-job /burg/berkelbach/users/eav2136/projects/peroxide_dissociation/05_range_separated_functional/wb97x-v-radical/wb97x-v-radical_opt E -857.640451206230
  C      -0.059431      6.435289      3.586899
  S       1.457488      6.143192      2.672421
  C       1.126993      4.666052      1.786971
  C      -0.096100      3.992859      1.804576
  C      -0.255444      2.826823      1.070374
  C       0.798732      2.324418      0.316943
  C       2.021846      2.996201      0.290867
  C       2.184814      4.156597      1.019615
  C       0.630239      1.077720     -0.442395
  O      -0.423888      0.397482     -0.494452
  O       1.525108      0.529321     -1.133263
  H       0.120702      7.339450      4.170637
  H      -0.278946      5.613342      4.270854
  H      -0.905243      6.612662      2.920128
  H      -0.928490      4.368302      2.386573
  H      -1.203987      2.298427      1.081656
  H       2.839978      2.597612     -0.301075
  H       3.135927      4.680219      1.006624
18
Coordinates from ORCA-job /burg/berkelbach/users/eav2136/projects/peroxide_dissociation/05_range_separated_functional/wb97x-v-radical/wb97x-v-radical_opt E -857.640449399040
  C      -0.059298      6.434858      3.587231
  S       1.457154      6.143821      2.671635
  C       1.126670      4.666854      1.785916
  C      -0.096270      3.993289      1.804035
  C      -0.255464      2.827020      1.070173
  C       0.798799      2.324483      0.316905
  C       2.021811      2.996420      0.290623
  C       2.184501      4.157267      1.018743
  C       0.630227      1.077489     -0.441769
  O      -0.425230      0.399820     -0.497647
  O       1.526747      0.525716     -1.128013
  H       0.121456      7.337805      4.172639
  H      -0.278722      5.611605      4.269679
  H      -0.905397      6.613840      2.921261
  H      -0.928624      4.368505      2.386256
  H      -1.203744      2.298176      1.082051
  H       2.840149      2.597939     -0.301131
  H       3.135531      4.681061      1.005365
18
Coordinates from ORCA-job /burg/berkelbach/users/eav2136/projects/peroxide_dissociation/05_range_separated_functional/wb97x-v-radical/wb97x-v-radical_opt E -857.640449065080
  C      -0.059432      6.434632      3.587177
  S       1.457006      6.144155      2.671357
  C       1.126691      4.667215      1.785530
  C      -0.096139      3.993327      1.803995
  C      -0.255180      2.826959      1.070235
  C       0.799192      2.324419      0.317006
  C       2.022082      2.996514      0.290629
  C       2.184478      4.157673      1.018381
  C       0.630327      1.077569     -0.441678
  O      -0.426938      0.402364     -0.499781
  O       1.526877      0.523165     -1.125277
  H       0.121329      7.337213      4.173136
  H      -0.278487      5.610833      4.269123
  H      -0.905750      6.613919      2.921566
  H      -0.928539      4.368258      2.386382
  H      -1.203236      2.297725      1.082644
  H       2.840612      2.598342     -0.301077
  H       3.135402      4.681686      1.004603
