36
Coordinates from ORCA-job /burg/berkelbach/users/eav2136/projects/peroxide_dissociation/05_range_separated_functional/wb97x-v-peroxide/wb97x-v-peroxide_opt E -1715.331022946758
  C      -0.074257      6.450078      3.546369
  S       1.489796      6.080482      2.755983
  C       1.149367      4.636622      1.833692
  C      -0.091366      4.003053      1.793384
  C      -0.258269      2.842695      1.059363
  C       0.800510      2.302714      0.339239
  C       2.028757      2.960408      0.342019
  C       2.207648      4.103303      1.091211
  C       0.662544      1.099418     -0.506902
  O       0.000000      0.000000      0.000000
  O       1.067139      0.987171     -1.623577
  O       0.000000      0.000000      1.415273
  C      -1.273888      0.000000      1.915906
  C      -1.222115      0.066428      3.388315
  O      -2.257429     -0.025858      1.238757
  C      -2.415439     -0.122896      4.085953
  C      -2.441959     -0.034377      5.458877
  C      -1.272751      0.254962      6.172985
  C      -0.081778      0.450607      5.475180
  C      -0.058904      0.354404      4.095446
  S      -1.426667      0.349861      7.907885
  C       0.243161      0.684954      8.461945
  H       0.104163      7.346077      4.140874
  H      -0.388823      5.643873      4.210020
  H      -0.853239      6.664434      2.813856
  H      -0.937000      4.405134      2.334216
  H      -1.235074      2.374970      1.027490
  H       2.845447      2.558826     -0.245767
  H       3.172953      4.596710      1.102483
  H      -3.317691     -0.339000      3.527072
  H      -3.371885     -0.188084      5.994647
  H       0.834798      0.682521      5.999887
  H       0.870469      0.518836      3.566025
  H       0.184541      0.737294      9.549091
  H       0.608645      1.640295      8.083742
  H       0.925075     -0.119495      8.184590
36
Coordinates from ORCA-job /burg/berkelbach/users/eav2136/projects/peroxide_dissociation/05_range_separated_functional/wb97x-v-peroxide/wb97x-v-peroxide_opt E -1715.331218149426
  C       0.017534      6.408858      3.642109
  S       1.553226      6.059190      2.783553
  C       1.178601      4.633834      1.836095
  C      -0.080519      4.035454      1.776237
  C      -0.273639      2.887556      1.022920
  C       0.779171      2.323725      0.309809
  C       2.027233      2.946078      0.332351
  C       2.230217      4.078327      1.097366
  C       0.617326      1.122255     -0.547779
  O      -0.042138      0.017400     -0.034632
  O       1.017214      1.012072     -1.667935
  O      -0.025704      0.017520      1.380992
  C      -1.295363     -0.059615      1.897956
  C      -1.237183      0.022145      3.377735
  O      -2.281998     -0.154965      1.229037
  C      -2.405932     -0.261883      4.088146
  C      -2.427213     -0.168854      5.463986
  C      -1.279718      0.223751      6.167259
  C      -0.115281      0.517432      5.456128
  C      -0.095528      0.413290      4.073214
  S      -1.428745      0.316663      7.908552
  C       0.206931      0.814118      8.451051
  H       0.217691      7.291099      4.252319
  H      -0.272970      5.585805      4.298236
  H      -0.789599      6.641085      2.944777
  H      -0.921644      4.455000      2.314475
  H      -1.265306      2.448132      0.974022
  H       2.840576      2.525512     -0.250541
  H       3.210773      4.544475      1.125556
  H      -3.293361     -0.557560      3.538363
  H      -3.337444     -0.398730      6.009979
  H       0.784349      0.831400      5.971044
  H       0.814186      0.653155      3.533779
  H       0.150838      0.865962      9.539596
  H       0.477195      1.799606      8.066920
  H       0.962700      0.077128      8.172855
36
Coordinates from ORCA-job /burg/berkelbach/users/eav2136/projects/peroxide_dissociation/05_range_separated_functional/wb97x-v-peroxide/wb97x-v-peroxide_opt E -1715.330664854421
  C      -0.042481      6.147647      3.866652
  S       1.471355      5.925977      2.922419
  C       1.126879      4.525682      1.913562
  C      -0.113354      3.885470      1.847875
  C      -0.280395      2.763764      1.042585
  C       0.781490      2.269554      0.290178
  C       2.011056      2.930467      0.322426
  C       2.186527      4.039219      1.135007
  C       0.646863      1.078631     -0.602468
  O      -0.001824     -0.047541     -0.106512
  O       1.004837      1.019714     -1.741902
  O       0.015659     -0.045367      1.309012
  C      -1.263063     -0.014027      1.823574
  C      -1.208170      0.096452      3.312367
  O      -2.251193     -0.034196      1.148187
  C      -2.397257     -0.101953      4.021761
  C      -2.419878      0.025788      5.398784
  C      -1.254646      0.371687      6.101358
  C      -0.069793      0.579084      5.390355
  C      -0.047681      0.437584      4.005874
  S      -1.413438      0.526527      7.845913
  C       0.231519      1.008564      8.386427
  H       0.151146      6.985472      4.540744
  H      -0.278268      5.262587      4.464112
  H      -0.886811      6.406063      3.222841
  H      -0.960286      4.248548      2.421164
  H      -1.256985      2.284141      0.995248
  H       2.831904      2.559862     -0.287442
  H       3.153197      4.537624      1.172446
  H      -3.300017     -0.357998      3.472858
  H      -3.346844     -0.136970      5.944890
  H       0.845792      0.855344      5.903254
  H       0.879937      0.611824      3.466094
  H       0.168410      1.100175      9.473380
  H       0.527191      1.975287      7.970886
  H       0.975099      0.245735      8.141623
36
Coordinates from ORCA-job /burg/berkelbach/users/eav2136/projects/peroxide_dissociation/05_range_separated_functional/wb97x-v-peroxide/wb97x-v-peroxide_opt E -1715.331397428598
  C      -0.028615      6.286335      3.750496
  S       1.520913      5.960620      2.903352
  C       1.155607      4.558677      1.910500
  C      -0.103444      3.963587      1.820770
  C      -0.289216      2.837489      1.030940
  C       0.771299      2.296792      0.311736
  C       2.019517      2.916944      0.362833
  C       2.214503      4.027013      1.164448
  C       0.616899      1.110366     -0.574848
  O      -0.034621     -0.010037     -0.078159
  O       1.008295      1.029704     -1.699885
  O      -0.011714     -0.022355      1.337066
  C      -1.285418     -0.040773      1.855573
  C      -1.221980      0.050396      3.337939
  O      -2.275676     -0.095180      1.188111
  C      -2.397161     -0.194100      4.052605
  C      -2.413586     -0.079233      5.428089
  C      -1.255184      0.295909      6.123580
  C      -0.083247      0.544733      5.407746
  C      -0.067983      0.418977      4.024837
  S      -1.403030      0.428594      7.866680
  C       0.236361      0.937298      8.392459
  H       0.175226      7.120376      4.424310
  H      -0.351722      5.426578      4.341589
  H      -0.814852      6.584428      3.054206
  H      -0.949876      4.365781      2.364561
  H      -1.279366      2.395969      0.962514
  H       2.838929      2.512839     -0.223558
  H       3.194762      4.492114      1.217339
  H      -3.294143     -0.471421      3.508357
  H      -3.329389     -0.274709      5.978524
  H       0.825846      0.842635      5.916474
  H       0.847184      0.627272      3.480501
  H       0.180170      1.028882      9.478553
  H       0.512166      1.906932      7.972985
  H       0.989024      0.186985      8.142305
36
Coordinates from ORCA-job /burg/berkelbach/users/eav2136/projects/peroxide_dissociation/05_range_separated_functional/wb97x-v-peroxide/wb97x-v-peroxide_opt E -1715.331338205642
  C      -0.012924      6.227701      3.811540
  S       1.517518      5.946563      2.915717
  C       1.152940      4.548841      1.916644
  C      -0.106834      3.957565      1.819668
  C      -0.291238      2.833524      1.027491
  C       0.771364      2.292793      0.312248
  C       2.020323      2.909478      0.370044
  C       2.213697      4.017307      1.174271
  C       0.617724      1.110502     -0.578522
  O      -0.038901     -0.009026     -0.087407
  O       0.998708      1.038158     -1.706928
  O      -0.017220     -0.029197      1.327774
  C      -1.290625     -0.044695      1.846186
  C      -1.224918      0.049840      3.326636
  O      -2.281089     -0.099868      1.180030
  C      -2.395697     -0.203394      4.044520
  C      -2.410173     -0.080621      5.418761
  C      -1.254606      0.311703      6.108572
  C      -0.086811      0.567349      5.389588
  C      -0.073211      0.433435      4.008048
  S      -1.400044      0.455173      7.850686
  C       0.232600      0.994988      8.364997
  H       0.175937      7.091437      4.451023
  H      -0.271738      5.373739      4.440720
  H      -0.837928      6.465564      3.137487
  H      -0.954853      4.361136      2.359019
  H      -1.281380      2.393982      0.953684
  H       2.840946      2.505907     -0.214140
  H       3.194078      4.480579      1.232039
  H      -3.290719     -0.492647      3.504151
  H      -3.322323     -0.282017      5.972305
  H       0.820139      0.876764      5.894319
  H       0.837977      0.647835      3.460598
  H       0.177349      1.102292      9.449445
  H       0.493062      1.961611      7.929745
  H       0.995349      0.252118      8.124572
36
Coordinates from ORCA-job /burg/berkelbach/users/eav2136/projects/peroxide_dissociation/05_range_separated_functional/wb97x-v-peroxide/wb97x-v-peroxide_opt E -1715.331334758093
  C      -0.010504      6.162112      3.883398
  S       1.527635      5.874871      3.002095
  C       1.154820      4.501218      1.971075
  C      -0.108496      3.920212      1.860193
  C      -0.298825      2.814461      1.043611
  C       0.761675      2.283487      0.318283
  C       2.014422      2.890421      0.390350
  C       2.213294      3.979694      1.218729
  C       0.601007      1.118718     -0.595290
  O      -0.050235     -0.010423     -0.117673
  O       0.977059      1.066132     -1.726082
  O      -0.024098     -0.046442      1.297126
  C      -1.296169     -0.057552      1.820378
  C      -1.223784      0.045868      3.300270
  O      -2.289246     -0.109627      1.158164
  C      -2.387878     -0.214328      4.026405
  C      -2.396596     -0.076861      5.399481
  C      -1.242654      0.338563      6.078406
  C      -0.081338      0.599219      5.351232
  C      -0.072942      0.449786      3.970997
  S      -1.382222      0.504305      7.819963
  C       0.236498      1.102715      8.313755
  H       0.190146      6.993689      4.560868
  H      -0.303111      5.290435      4.472303
  H      -0.816997      6.450094      3.206549
  H      -0.954611      4.316476      2.407903
  H      -1.290992      2.380680      0.960774
  H       2.833538      2.494361     -0.201130
  H       3.196515      4.435403      1.288302
  H      -3.282485     -0.519261      3.493949
  H      -3.303549     -0.282583      5.960034
  H       0.824602      0.924748      5.847584
  H       0.832688      0.669420      3.416422
  H       0.184148      1.230335      9.396195
  H       0.465070      2.067620      7.857219
  H       1.020093      0.378454      8.083692
36
Coordinates from ORCA-job /burg/berkelbach/users/eav2136/projects/peroxide_dissociation/05_range_separated_functional/wb97x-v-peroxide/wb97x-v-peroxide_opt E -1715.331340708847
  C      -0.080858      6.161500      3.872732
  S       1.498879      5.813460      3.091885
  C       1.137103      4.457178      2.031773
  C      -0.132476      3.902671      1.869064
  C      -0.314378      2.809018      1.033791
  C       0.761651      2.265407      0.341478
  C       2.022522      2.846464      0.464564
  C       2.212076      3.923019      1.312532
  C       0.608281      1.113124     -0.591271
  O      -0.057534     -0.017945     -0.136520
  O       0.997973      1.074042     -1.717652
  O      -0.035696     -0.077022      1.277420
  C      -1.306839     -0.031144      1.802947
  C      -1.223765      0.064064      3.283401
  O      -2.303043     -0.044970      1.143620
  C      -2.387629     -0.172280      4.018342
  C      -2.383552     -0.028516      5.391253
  C      -1.216905      0.369331      6.059445
  C      -0.055512      0.602570      5.323674
  C      -0.060088      0.447330      3.943788
  S      -1.339899      0.550083      7.801812
  C       0.298239      1.109449      8.278035
  H       0.115978      6.957785      4.592614
  H      -0.463212      5.289002      4.406910
  H      -0.819301      6.517893      3.152071
  H      -0.990292      4.309174      2.390910
  H      -1.310848      2.394058      0.911239
  H       2.855000      2.441118     -0.101814
  H       3.200858      4.358722      1.422910
  H      -3.292537     -0.460498      3.493586
  H      -3.290571     -0.213178      5.959398
  H       0.860890      0.911022      5.811861
  H       0.845666      0.647081      3.381607
  H       0.251494      1.270910      9.356340
  H       0.556534      2.052414      7.792077
  H       1.058272      0.354084      8.069708
36
Coordinates from ORCA-job /burg/berkelbach/users/eav2136/projects/peroxide_dissociation/05_range_separated_functional/wb97x-v-peroxide/wb97x-v-peroxide_opt E -1715.331341770430
  C      -0.049166      6.135456      3.907832
  S       1.515237      5.812224      3.087198
  C       1.145890      4.458118      2.027905
  C      -0.124232      3.902065      1.875191
  C      -0.312023      2.809874      1.039520
  C       0.758485      2.268843      0.336749
  C       2.019621      2.851289      0.450465
  C       2.215151      3.926602      1.298257
  C       0.598217      1.119385     -0.597516
  O      -0.062172     -0.013594     -0.140755
  O       0.982687      1.082060     -1.725815
  O      -0.037495     -0.072304      1.273113
  C      -1.308437     -0.048609      1.799814
  C      -1.226088      0.053235      3.279411
  O      -2.304700     -0.075322      1.140916
  C      -2.385749     -0.198403      4.015800
  C      -2.382898     -0.052224      5.388251
  C      -1.221915      0.363952      6.054967
  C      -0.064834      0.613843      5.317730
  C      -0.068068      0.455854      3.938339
  S      -1.346191      0.545064      7.796641
  C       0.275398      1.153443      8.268676
  H       0.149523      6.946482      4.610449
  H      -0.395761      5.262712      4.465271
  H      -0.815686      6.463963      3.203473
  H      -0.977950      4.306720      2.404937
  H      -1.308799      2.393719      0.925085
  H       2.847642      2.448277     -0.123897
  H       3.204147      4.363658      1.400188
  H      -3.286380     -0.501673      3.492339
  H      -3.286418     -0.249930      5.957396
  H       0.847077      0.936942      5.804669
  H       0.834113      0.667977      3.375115
  H       0.233249      1.293117      9.350137
  H       0.495317      2.113908      7.798562
  H       1.059687      0.429699      8.039116
36
Coordinates from ORCA-job /burg/berkelbach/users/eav2136/projects/peroxide_dissociation/05_range_separated_functional/wb97x-v-peroxide/wb97x-v-peroxide_opt E -1715.331358913298
  C      -0.034464      6.154819      3.890467
  S       1.524470      5.833024      3.059354
  C       1.152308      4.472532      2.009992
  C      -0.116737      3.910729      1.869433
  C      -0.306643      2.813837      1.040419
  C       0.760606      2.273131      0.332408
  C       2.020470      2.860553      0.434743
  C       2.218219      3.940804      1.275478
  C       0.597257      1.119660     -0.595970
  O      -0.060402     -0.011778     -0.132116
  O       0.974915      1.078936     -1.726566
  O      -0.035842     -0.062412      1.282057
  C      -1.307323     -0.050746      1.807543
  C      -1.228310      0.051882      3.287138
  O      -2.302427     -0.091587      1.147472
  C      -2.385371     -0.215788      4.021931
  C      -2.385991     -0.072611      5.394607
  C      -1.231096      0.356313      6.063763
  C      -0.076825      0.623813      5.328051
  C      -0.076547      0.468835      3.948372
  S      -1.358973      0.529611      7.805610
  C       0.265077      1.124151      8.286431
  H       0.166140      6.972168      4.585136
  H      -0.372269      5.284874      4.457590
  H      -0.808272      6.474133      3.189893
  H      -0.967974      4.314803      2.403545
  H      -1.302536      2.393141      0.935642
  H       2.845906      2.457697     -0.143412
  H       3.206315      4.381959      1.367722
  H      -3.281310     -0.530017      3.496901
  H      -3.287372     -0.283620      5.962308
  H       0.830034      0.958364      5.816633
  H       0.823265      0.694222      3.386547
  H       0.216751      1.268459      9.366999
  H       0.497574      2.080581      7.814139
  H       1.043855      0.391947      8.065271
36
Coordinates from ORCA-job /burg/berkelbach/users/eav2136/projects/peroxide_dissociation/05_range_separated_functional/wb97x-v-peroxide/wb97x-v-peroxide_opt E -1715.331369004568
  C      -0.046811      6.163249      3.880237
  S       1.518568      5.830681      3.065654
  C       1.148949      4.470355      2.015142
  C      -0.121010      3.912739      1.866397
  C      -0.309024      2.815805      1.036949
  C       0.761152      2.270892      0.336591
  C       2.022273      2.854092      0.447039
  C       2.218022      3.934275      1.288384
  C       0.599225      1.118222     -0.593251
  O      -0.061310     -0.012828     -0.132520
  O       0.980457      1.077962     -1.722645
  O      -0.037590     -0.067439      1.281494
  C      -1.308912     -0.044184      1.807079
  C      -1.228290      0.054250      3.286857
  O      -2.304446     -0.072024      1.146970
  C      -2.386652     -0.206148      4.022230
  C      -2.384737     -0.066053      5.395254
  C      -1.225921      0.352739      6.064125
  C      -0.070316      0.612825      5.327827
  C      -0.072650      0.460820      3.947820
  S      -1.350602      0.523934      7.806397
  C       0.273919      1.119114      8.284847
  H       0.151971      6.979439      4.576807
  H      -0.396517      5.295759      4.443961
  H      -0.811008      6.487581      3.171441
  H      -0.974507      4.320168      2.394385
  H      -1.305647      2.398480      0.925520
  H       2.850290      2.448154     -0.125281
  H       3.206986      4.372161      1.386892
  H      -3.285557     -0.512358      3.497477
  H      -3.287100     -0.271501      5.963470
  H       0.839671      0.939173      5.816161
  H       0.828314      0.680425      3.385493
  H       0.229805      1.255087      9.366684
  H       0.501719      2.079785      7.818912
  H       1.053764      0.390789      8.054730
36
Coordinates from ORCA-job /burg/berkelbach/users/eav2136/projects/peroxide_dissociation/05_range_separated_functional/wb97x-v-peroxide/wb97x-v-peroxide_opt E -1715.331361188572
  C      -0.050675      6.150104      3.892909
  S       1.515849      5.818447      3.080151
  C       1.146780      4.461668      2.024810
  C      -0.123781      3.907019      1.870469
  C      -0.311369      2.812764      1.037326
  C       0.759941      2.267737      0.338805
  C       2.021898      2.847927      0.455013
  C       2.217098      3.925374      1.300010
  C       0.597739      1.118187     -0.595018
  O      -0.061643     -0.014689     -0.137287
  O       0.980486      1.080898     -1.723960
  O      -0.038489     -0.072005      1.276570
  C      -1.309756     -0.043776      1.802203
  C      -1.228148      0.056445      3.281746
  O      -2.305473     -0.067789      1.142227
  C      -2.385707     -0.202767      4.018755
  C      -2.382394     -0.059901      5.391514
  C      -1.223037      0.360761      6.058297
  C      -0.068212      0.619534      5.320335
  C      -0.071878      0.464487      3.940680
  S      -1.345868      0.536131      7.800278
  C       0.278777      1.133832      8.275150
  H       0.146952      6.966043      4.590107
  H      -0.400842      5.282298      4.455852
  H      -0.814071      6.474457      3.183250
  H      -0.978147      4.314687      2.396884
  H      -1.308379      2.397504      0.921656
  H       2.851061      2.441953     -0.115637
  H       3.206651      4.360941      1.402877
  H      -3.285210     -0.509939      3.495569
  H      -3.284139     -0.264317      5.961087
  H       0.842150      0.947359      5.806994
  H       0.828389      0.683245      3.376886
  H       0.235300      1.274317      9.356438
  H       0.505853      2.092629      7.804990
  H       1.058769      0.404857      8.047595
36
Coordinates from ORCA-job /burg/berkelbach/users/eav2136/projects/peroxide_dissociation/05_range_separated_functional/wb97x-v-peroxide/wb97x-v-peroxide_opt E -1715.331359110157
  C      -0.047608      6.149227      3.895196
  S       1.519118      5.815260      3.083821
  C       1.148678      4.459893      2.027232
  C      -0.122461      3.906846      1.872045
  C      -0.311135      2.813583      1.037813
  C       0.759727      2.267856      0.339135
  C       2.022313      2.846463      0.456215
  C       2.218547      3.922909      1.302228
  C       0.595993      1.119276     -0.595693
  O      -0.063757     -0.013586     -0.138552
  O       0.975410      1.083952     -1.725819
  O      -0.040196     -0.072104      1.275227
  C      -1.311306     -0.044800      1.801384
  C      -1.229084      0.055113      3.280867
  O      -2.307284     -0.070770      1.141860
  C      -2.384956     -0.208766      4.018829
  C      -2.381025     -0.066128      5.391609
  C      -1.222808      0.359117      6.057468
  C      -0.069658      0.622637      5.318529
  C      -0.073873      0.467677      3.938880
  S      -1.344749      0.533825      7.799522
  C       0.277240      1.139943      8.272769
  H       0.150996      6.963842      4.593665
  H      -0.400390      5.281514      4.456653
  H      -0.809427      6.476144      3.185027
  H      -0.976455      4.314973      2.398712
  H      -1.308536      2.399446      0.921587
  H       2.851273      2.440016     -0.114401
  H       3.208618      4.357150      1.405725
  H      -3.283758     -0.519286      3.496403
  H      -3.281445     -0.274241      5.961934
  H       0.839765      0.954196      5.804416
  H       0.824966      0.690205      3.374273
  H       0.234485      1.278906      9.354281
  H       0.498316      2.100552      7.803451
  H       1.060945      0.415580      8.043241
36
Coordinates from ORCA-job /burg/berkelbach/users/eav2136/projects/peroxide_dissociation/05_range_separated_functional/wb97x-v-peroxide/wb97x-v-peroxide_opt E -1715.331368555848
  C      -0.050749      6.157307      3.885516
  S       1.517029      5.821211      3.077127
  C       1.147791      4.463809      2.022928
  C      -0.123083      3.910126      1.867764
  C      -0.310848      2.815222      1.035499
  C       0.760670      2.268262      0.338771
  C       2.023047      2.847362      0.455860
  C       2.218373      3.925505      1.299894
  C       0.597739      1.117998     -0.594077
  O      -0.061927     -0.014260     -0.135523
  O       0.977456      1.081050     -1.724092
  O      -0.038972     -0.071178      1.278352
  C      -1.310298     -0.042872      1.803918
  C      -1.228874      0.056624      3.283471
  O      -2.305937     -0.067208      1.143792
  C      -2.385670     -0.205500      4.020606
  C      -2.382212     -0.064258      5.393524
  C      -1.223450      0.357705      6.060525
  C      -0.069426      0.619848      5.322377
  C      -0.073264      0.466493      3.942560
  S      -1.345737      0.529900      7.802729
  C       0.279049      1.126357      8.278626
  H       0.147301      6.972780      4.583142
  H      -0.405096      5.290671      4.447662
  H      -0.811154      6.483740      3.173615
  H      -0.977570      4.319068      2.393001
  H      -1.308084      2.400693      0.919234
  H       2.852615      2.439971     -0.113207
  H       3.208296      4.360101      1.403321
  H      -3.284780     -0.513859      3.497421
  H      -3.283322     -0.271296      5.963155
  H       0.840400      0.949032      5.809120
  H       0.826328      0.687772      3.378644
  H       0.236195      1.262749      9.360464
  H       0.505538      2.087019      7.812016
  H       1.059103      0.398478      8.047797
