36
Coordinates from ORCA-job /burg/berkelbach/users/eav2136/projects/peroxide_dissociation/04_solvated_radical/dmf_peroxide/dmf_peroxide_opt E -1714.467476129882
  C      -0.074257      6.450078      3.546369
  S       1.489796      6.080482      2.755983
  C       1.149367      4.636622      1.833692
  C      -0.091366      4.003053      1.793384
  C      -0.258269      2.842695      1.059363
  C       0.800510      2.302714      0.339239
  C       2.028757      2.960408      0.342019
  C       2.207648      4.103303      1.091211
  C       0.662544      1.099418     -0.506902
  O       0.000000      0.000000      0.000000
  O       1.067139      0.987171     -1.623577
  O       0.000000      0.000000      1.415273
  C      -1.273888      0.000000      1.915906
  C      -1.222115      0.066428      3.388315
  O      -2.257429     -0.025858      1.238757
  C      -2.415439     -0.122896      4.085953
  C      -2.441959     -0.034377      5.458877
  C      -1.272751      0.254962      6.172985
  C      -0.081778      0.450607      5.475180
  C      -0.058904      0.354404      4.095446
  S      -1.426667      0.349861      7.907885
  C       0.243161      0.684954      8.461945
  H       0.104163      7.346077      4.140874
  H      -0.388823      5.643873      4.210020
  H      -0.853239      6.664434      2.813856
  H      -0.937000      4.405134      2.334216
  H      -1.235074      2.374970      1.027490
  H       2.845447      2.558826     -0.245767
  H       3.172953      4.596710      1.102483
  H      -3.317691     -0.339000      3.527072
  H      -3.371885     -0.188084      5.994647
  H       0.834798      0.682521      5.999887
  H       0.870469      0.518836      3.566025
  H       0.184541      0.737294      9.549091
  H       0.608645      1.640295      8.083742
  H       0.925075     -0.119495      8.184590
36
Coordinates from ORCA-job /burg/berkelbach/users/eav2136/projects/peroxide_dissociation/04_solvated_radical/dmf_peroxide/dmf_peroxide_opt E -1714.467419405350
  C       0.199011      6.548346      3.566340
  S       1.705156      6.127186      2.693262
  C       1.269911      4.701594      1.783312
  C      -0.005019      4.136827      1.776991
  C      -0.251578      2.984968      1.053162
  C       0.759671      2.386383      0.308857
  C       2.023864      2.974855      0.280234
  C       2.282012      4.108445      1.019715
  C       0.537879      1.192880     -0.529323
  O      -0.128754      0.106883      0.000316
  O       0.893161      1.063981     -1.663951
  O      -0.101657      0.104570      1.415552
  C      -1.342830     -0.138571      1.941276
  C      -1.278609     -0.071210      3.411319
  O      -2.298566     -0.422571      1.280028
  C      -2.373872     -0.557202      4.128543
  C      -2.389222     -0.495869      5.502596
  C      -1.309625      0.064095      6.199293
  C      -0.219754      0.558912      5.482850
  C      -0.205391      0.487756      4.101941
  S      -1.437002      0.094168      7.938701
  C       0.104667      0.834427      8.470581
  H       0.438518      7.438863      4.149426
  H      -0.104724      5.753011      4.248000
  H      -0.610818      6.788167      2.876509
  H      -0.814905      4.586930      2.335441
  H      -1.254587      2.576379      1.044429
  H       2.808873      2.522859     -0.314976
  H       3.275383      4.544084      1.009547
  H      -3.208801     -0.985301      3.587127
  H      -3.241005     -0.882626      6.051682
  H       0.623255      1.004584      5.993770
  H       0.644175      0.884854      3.561328
  H       0.061458      0.847620      9.560742
  H       0.203809      1.859217      8.111006
  H       0.962393      0.236925      8.159906
36
Coordinates from ORCA-job /burg/berkelbach/users/eav2136/projects/peroxide_dissociation/04_solvated_radical/dmf_peroxide/dmf_peroxide_opt E -1714.467808176684
  C       0.254755      6.318614      3.816930
  S       1.712089      6.003261      2.824346
  C       1.272085      4.609310      1.869018
  C       0.022232      3.992001      1.922793
  C      -0.231303      2.870576      1.155395
  C       0.745114      2.358770      0.306009
  C       1.983952      2.996272      0.225183
  C       2.250881      4.098897      1.007068
  C       0.508581      1.201203     -0.573031
  O      -0.128212      0.088876     -0.067505
  O       0.781677      1.137446     -1.737679
  O      -0.083247      0.059967      1.346487
  C      -1.313356     -0.224138      1.878360
  C      -1.262172     -0.085170      3.342184
  O      -2.267175     -0.519448      1.217077
  C      -2.346164     -0.572437      4.077145
  C      -2.368956     -0.450855      5.446922
  C      -1.309374      0.173649      6.120761
  C      -0.231872      0.670823      5.386650
  C      -0.209809      0.539043      4.010686
  S      -1.441114      0.279508      7.856643
  C       0.056726      1.125328      8.355025
  H       0.504630      7.181123      4.437640
  H       0.022650      5.473734      4.466483
  H      -0.606067      6.570740      3.196873
  H      -0.760922      4.375944      2.563042
  H      -1.214220      2.417176      1.201656
  H       2.745772      2.605671     -0.439868
  H       3.226102      4.571605      0.955048
  H      -3.166141     -1.051852      3.556178
  H      -3.211785     -0.839581      6.008851
  H       0.594429      1.165949      5.879503
  H       0.630178      0.940429      3.457914
  H       0.007388      1.189751      9.443687
  H       0.102924      2.135010      7.945621
  H       0.946201      0.559222      8.076433
36
Coordinates from ORCA-job /burg/berkelbach/users/eav2136/projects/peroxide_dissociation/04_solvated_radical/dmf_peroxide/dmf_peroxide_opt E -1714.467928005550
  C       0.116483      6.333310      3.757369
  S       1.622790      5.991138      2.850501
  C       1.223269      4.585530      1.894214
  C      -0.024956      3.963149      1.910730
  C      -0.248632      2.835560      1.142904
  C       0.756181      2.324032      0.327539
  C       1.993480      2.967206      0.282459
  C       2.230808      4.075297      1.066831
  C       0.549363      1.164042     -0.555544
  O      -0.075179      0.041935     -0.060412
  O       0.893104      1.082267     -1.699956
  O      -0.046106      0.017902      1.354371
  C      -1.305888     -0.129795      1.871284
  C      -1.250113     -0.016562      3.336733
  O      -2.278321     -0.322865      1.200164
  C      -2.380067     -0.403043      4.061967
  C      -2.398475     -0.292630      5.433107
  C      -1.286580      0.218077      6.117566
  C      -0.160814      0.611773      5.393469
  C      -0.144464      0.491525      4.016312
  S      -1.415360      0.320849      7.853546
  C       0.150577      1.025573      8.361467
  H       0.341717      7.200147      4.380715
  H      -0.160122      5.498727      4.402810
  H      -0.706287      6.587280      3.088245
  H      -0.829767      4.346933      2.522952
  H      -1.229815      2.376599      1.163125
  H       2.776902      2.579278     -0.358150
  H       3.204356      4.552955      1.041717
  H      -3.241554     -0.792595      3.533338
  H      -3.279206     -0.600024      5.986685
  H       0.707632      1.017663      5.894642
  H       0.734320      0.812746      3.472013
  H       0.095420      1.104647      9.448403
  H       0.296156      2.022387      7.943863
  H       0.985627      0.375405      8.098551
36
Coordinates from ORCA-job /burg/berkelbach/users/eav2136/projects/peroxide_dissociation/04_solvated_radical/dmf_peroxide/dmf_peroxide_opt E -1714.467976669949
  C       0.037316      6.390316      3.670062
  S       1.562662      6.045610      2.796675
  C       1.193907      4.617681      1.861177
  C      -0.056230      3.999312      1.846618
  C      -0.255140      2.853252      1.099593
  C       0.777827      2.316488      0.337353
  C       2.016120      2.958222      0.318630
  C       2.228344      4.085344      1.083188
  C       0.600573      1.136016     -0.525389
  O      -0.052668      0.027639     -0.034831
  O       0.950146      1.044665     -1.667217
  O      -0.034273     -0.007147      1.380822
  C      -1.303958     -0.075939      1.891753
  C      -1.246418      0.010606      3.358645
  O      -2.283730     -0.200003      1.215700
  C      -2.400140     -0.314829      4.075912
  C      -2.417974     -0.216949      5.448166
  C      -1.280389      0.218260      6.141764
  C      -0.129161      0.548126      5.425796
  C      -0.114659      0.441903      4.047398
  S      -1.410454      0.313807      7.877943
  C       0.203083      0.888452      8.399913
  H       0.236283      7.285080      4.261588
  H      -0.230641      5.576063      4.344394
  H      -0.781398      6.600441      2.980990
  H      -0.882049      4.400815      2.417853
  H      -1.239262      2.400831      1.092358
  H       2.820509      2.554985     -0.285214
  H       3.203085      4.560847      1.079759
  H      -3.282486     -0.644182      3.540859
  H      -3.318703     -0.474480      5.994700
  H       0.760372      0.894931      5.933861
  H       0.784099      0.715442      3.510035
  H       0.143892      0.973492      9.485924
  H       0.433135      1.869373      7.982787
  H       0.984859      0.171948      8.145964
36
Coordinates from ORCA-job /burg/berkelbach/users/eav2136/projects/peroxide_dissociation/04_solvated_radical/dmf_peroxide/dmf_peroxide_opt E -1714.467997371702
  C       0.115967      6.317983      3.775804
  S       1.616670      5.991671      2.854071
  C       1.218792      4.590077      1.891195
  C      -0.034703      3.977966      1.891020
  C      -0.256150      2.850550      1.122378
  C       0.757176      2.325998      0.325944
  C       1.998550      2.961486      0.294707
  C       2.233263      4.070359      1.079004
  C       0.556083      1.163071     -0.554410
  O      -0.080758      0.043766     -0.066794
  O       0.887223      1.088719     -1.703369
  O      -0.049082     -0.004307      1.348609
  C      -1.309733     -0.135714      1.871282
  C      -1.248202     -0.029589      3.336430
  O      -2.288181     -0.302343      1.202179
  C      -2.378420     -0.409148      4.064506
  C      -2.394987     -0.294305      5.435351
  C      -1.280641      0.214301      6.116845
  C      -0.152895      0.598307      5.390106
  C      -0.138966      0.474012      4.013190
  S      -1.409838      0.331554      7.851864
  C       0.151966      1.048143      8.355254
  H       0.337846      7.188876      4.394488
  H      -0.144016      5.482133      4.426447
  H      -0.716622      6.560646      3.114725
  H      -0.845401      4.369703      2.490285
  H      -1.242996      2.403860      1.126621
  H       2.788725      2.566901     -0.333329
  H       3.210941      4.539849      1.065604
  H      -3.243936     -0.795025      3.539749
  H      -3.277468     -0.595070      5.989728
  H       0.718125      1.002030      5.888342
  H       0.740230      0.791946      3.467751
  H       0.097763      1.129021      9.442057
  H       0.288605      2.045146      7.935434
  H       0.991551      0.403847      8.092464
36
Coordinates from ORCA-job /burg/berkelbach/users/eav2136/projects/peroxide_dissociation/04_solvated_radical/dmf_peroxide/dmf_peroxide_opt E -1714.467997199587
  C       0.117710      6.282452      3.804047
  S       1.617921      5.962622      2.879286
  C       1.219730      4.568130      1.906204
  C      -0.027829      3.943772      1.917661
  C      -0.249592      2.822842      1.139688
  C       0.756633      2.317815      0.322073
  C       1.992158      2.964131      0.281351
  C       2.227460      4.066860      1.074154
  C       0.553594      1.160129     -0.563877
  O      -0.071257      0.035409     -0.074613
  O       0.876192      1.092739     -1.715859
  O      -0.043058     -0.003075      1.341049
  C      -1.305173     -0.129784      1.862435
  C      -1.247043     -0.014236      3.326685
  O      -2.280194     -0.315344      1.193162
  C      -2.372184     -0.406251      4.056047
  C      -2.392543     -0.281796      5.425990
  C      -1.287275      0.249192      6.105311
  C      -0.164500      0.645487      5.377252
  C      -0.146813      0.511819      4.001273
  S      -1.420026      0.376060      7.839372
  C       0.153086      1.065019      8.345958
  H       0.344688      7.140182      4.439258
  H      -0.149581      5.436484      4.438479
  H      -0.711766      6.543540      3.146135
  H      -0.833312      4.320489      2.533476
  H      -1.231886      2.365975      1.154294
  H       2.777945      2.583278     -0.360641
  H       3.200848      4.545009      1.052306
  H      -3.231129     -0.809984      3.533860
  H      -3.271115     -0.593015      5.980922
  H       0.699705      1.066082      5.873549
  H       0.728271      0.839970      3.455157
  H       0.090196      1.165906      9.430743
  H       0.316455      2.051233      7.910414
  H       0.980161      0.397277      8.102927
36
Coordinates from ORCA-job /burg/berkelbach/users/eav2136/projects/peroxide_dissociation/04_solvated_radical/dmf_peroxide/dmf_peroxide_opt E -1714.468028348728
  C       0.084220      6.301856      3.777540
  S       1.594959      5.975131      2.872565
  C       1.206920      4.574745      1.903742
  C      -0.044749      3.958773      1.895169
  C      -0.258542      2.832850      1.122144
  C       0.760009      2.314443      0.328584
  C       1.999523      2.953679      0.305745
  C       2.226707      4.061162      1.094450
  C       0.566242      1.152381     -0.554290
  O      -0.065518      0.029864     -0.068597
  O       0.903091      1.079696     -1.701633
  O      -0.039384     -0.014902      1.346883
  C      -1.304648     -0.115596      1.866264
  C      -1.244695     -0.007652      3.330974
  O      -2.284093     -0.266434      1.194986
  C      -2.380916     -0.370067      4.058288
  C      -2.398529     -0.250046      5.428754
  C      -1.279100      0.246810      6.110485
  C      -0.144968      0.613010      5.384433
  C      -0.130329      0.483960      4.007971
  S      -1.409182      0.371448      7.844819
  C       0.176662      1.030166      8.351815
  H       0.300131      7.171968      4.399460
  H      -0.183875      5.465677      4.424447
  H      -0.740694      6.546047      3.107440
  H      -0.859846      4.345951      2.491394
  H      -1.244304      2.383478      1.120172
  H       2.794444      2.564110     -0.319460
  H       3.202918      4.533828      1.086462
  H      -3.250693     -0.747355      3.534299
  H      -3.285842     -0.538230      5.982083
  H       0.730800      1.006380      5.882645
  H       0.754321      0.788025      3.463451
  H       0.118615      1.123255      9.437451
  H       0.354962      2.017114      7.923846
  H       0.991861      0.350892      8.100748
36
Coordinates from ORCA-job /burg/berkelbach/users/eav2136/projects/peroxide_dissociation/04_solvated_radical/dmf_peroxide/dmf_peroxide_opt E -1714.468017699336
  C       0.069924      6.287730      3.784864
  S       1.583932      5.965492      2.883801
  C       1.200516      4.567300      1.909921
  C      -0.051107      3.951344      1.894105
  C      -0.260970      2.826721      1.118122
  C       0.761585      2.309195      0.329286
  C       2.000968      2.948678      0.313250
  C       2.224111      4.055165      1.104637
  C       0.571942      1.147334     -0.554829
  O      -0.062881      0.025250     -0.072128
  O       0.908177      1.077306     -1.702453
  O      -0.038149     -0.023397      1.343222
  C      -1.305309     -0.099218      1.862694
  C      -1.242432      0.000453      3.327744
  O      -2.287531     -0.229642      1.191296
  C      -2.382731     -0.348897      4.054963
  C      -2.397609     -0.232655      5.425847
  C      -1.271323      0.247735      6.108042
  C      -0.132778      0.600169      5.382089
  C      -0.120754      0.474243      4.005310
  S      -1.399549      0.373192      7.842410
  C       0.182846      1.042527      8.346198
  H       0.282997      7.156029      4.410243
  H      -0.199507      5.449229      4.428207
  H      -0.753046      6.533278      3.112868
  H      -0.869140      4.337234      2.487121
  H      -1.246743      2.377310      1.110605
  H       2.799140      2.560375     -0.308577
  H       3.200319      4.527861      1.101783
  H      -3.258194     -0.712929      3.531067
  H      -3.288379     -0.510596      5.978829
  H       0.748521      0.980657      5.880517
  H       0.767473      0.768058      3.461041
  H       0.129366      1.127216      9.432737
  H       0.349949      2.034173      7.924679
  H       1.002842      0.372501      8.086019
36
Coordinates from ORCA-job /burg/berkelbach/users/eav2136/projects/peroxide_dissociation/04_solvated_radical/dmf_peroxide/dmf_peroxide_opt E -1714.468027184156
  C       0.071721      6.283175      3.790799
  S       1.587150      5.957940      2.893235
  C       1.201850      4.562934      1.915508
  C      -0.050871      3.949215      1.897439
  C      -0.262173      2.826839      1.118601
  C       0.760018      2.309263      0.329378
  C       2.000581      2.946472      0.315718
  C       2.225071      4.050828      1.109733
  C       0.568694      1.149240     -0.556810
  O      -0.064131      0.025793     -0.074550
  O       0.904955      1.080568     -1.704506
  O      -0.039143     -0.024086      1.340697
  C      -1.305821     -0.105246      1.860813
  C      -1.243028     -0.001393      3.325511
  O      -2.287861     -0.238024      1.189581
  C      -2.380360     -0.356771      4.054433
  C      -2.395490     -0.235934      5.424932
  C      -1.272584      0.255361      6.104982
  C      -0.136950      0.613631      5.377298
  C      -0.124532      0.482900      4.000979
  S      -1.401075      0.386441      7.838911
  C       0.185243      1.047002      8.341954
  H       0.286569      7.148095      4.420269
  H      -0.203403      5.443311      4.429949
  H      -0.748046      6.534948      3.117198
  H      -0.868654      4.335039      2.490871
  H      -1.248796      2.379253      1.109239
  H       2.798699      2.558140     -0.306190
  H       3.202187      4.521678      1.108545
  H      -3.253472     -0.729105      3.532440
  H      -3.283986     -0.518718      5.979137
  H       0.741681      1.002576      5.873940
  H       0.761214      0.781659      3.455341
  H       0.127709      1.145045      9.427186
  H       0.363390      2.031976      7.909424
  H       1.000121      0.366373      8.093547
36
Coordinates from ORCA-job /burg/berkelbach/users/eav2136/projects/peroxide_dissociation/04_solvated_radical/dmf_peroxide/dmf_peroxide_opt E -1714.468028907690
  C       0.078897      6.281259      3.794917
  S       1.592730      5.955772      2.894769
  C       1.205022      4.561719      1.916552
  C      -0.048551      3.949683      1.898689
  C      -0.261741      2.828141      1.119125
  C       0.759248      2.310004      0.328765
  C       2.000794      2.945253      0.315178
  C       2.227129      4.048747      1.109896
  C       0.565209      1.151101     -0.558395
  O      -0.067057      0.027614     -0.075469
  O       0.899281      1.083106     -1.706716
  O      -0.041741     -0.021680      1.339634
  C      -1.308045     -0.106327      1.860145
  C      -1.244805     -0.002725      3.324826
  O      -2.289783     -0.242985      1.189222
  C      -2.378391     -0.367553      4.054896
  C      -2.392858     -0.247344      5.425476
  C      -1.273348      0.253241      6.104392
  C      -0.141432      0.620768      5.375536
  C      -0.129480      0.490418      3.999185
  S      -1.400669      0.382429      7.838549
  C       0.181551      1.054001      8.339987
  H       0.294125      7.147713      4.422167
  H      -0.193978      5.442421      4.436368
  H      -0.742582      6.530728      3.122527
  H      -0.865588      4.336157      2.492730
  H      -1.248905      2.381663      1.109895
  H       2.798119      2.556392     -0.307435
  H       3.204879      4.518297      1.108359
  H      -3.249038     -0.747087      3.533958
  H      -3.278275     -0.537935      5.980585
  H       0.734706      1.016419      5.871297
  H       0.753316      0.796144      3.452619
  H       0.124766      1.150848      9.425381
  H       0.351996      2.040562      7.907945
  H       1.000975      0.379452      8.089972
36
Coordinates from ORCA-job /burg/berkelbach/users/eav2136/projects/peroxide_dissociation/04_solvated_radical/dmf_peroxide/dmf_peroxide_opt E -1714.468033423595
  C       0.074485      6.292184      3.782878
  S       1.594166      5.954970      2.897037
  C       1.206245      4.560829      1.918886
  C      -0.049092      3.952556      1.896337
  C      -0.262437      2.831037      1.116721
  C       0.760115      2.309427      0.330772
  C       2.003757      2.940507      0.322093
  C       2.230130      4.043867      1.117063
  C       0.564776      1.151092     -0.557084
  O      -0.069221      0.028510     -0.074208
  O       0.898904      1.082943     -1.705263
  O      -0.044522     -0.021280      1.340689
  C      -1.311225     -0.100275      1.861204
  C      -1.246730     -0.000517      3.326088
  O      -2.293728     -0.230515      1.190150
  C      -2.378415     -0.369643      4.056871
  C      -2.390897     -0.253184      5.427833
  C      -1.271621      0.248491      6.106336
  C      -0.141647      0.620355      5.376682
  C      -0.131461      0.493385      4.000004
  S      -1.396254      0.372411      7.841078
  C       0.185731      1.045215      8.341709
  H       0.290086      7.157618      4.411411
  H      -0.210465      5.455871      4.422378
  H      -0.738889      6.546995      3.102674
  H      -0.867485      4.341862      2.486650
  H      -1.250804      2.387217      1.103580
  H       2.802497      2.548961     -0.297026
  H       3.209335      4.510386      1.119016
  H      -3.249019     -0.750167      3.536557
  H      -3.274620     -0.547820      5.983509
  H       0.734515      1.016404      5.872079
  H       0.749984      0.801850      3.452807
  H       0.131181      1.137531      9.427616
  H       0.353103      2.033913      7.913338
  H       1.006002      0.373434      8.087064
