36
Coordinates from ORCA-job /burg/berkelbach/users/eav2136/projects/peroxide_dissociation/05_range_separated_functional/wb97x-v-peroxide-dmf/wb97x-v-peroxide-dmf_opt E -1715.362526190240
  C      -0.074257      6.450078      3.546369
  S       1.489796      6.080482      2.755983
  C       1.149367      4.636622      1.833692
  C      -0.091366      4.003053      1.793384
  C      -0.258269      2.842695      1.059363
  C       0.800510      2.302714      0.339239
  C       2.028757      2.960408      0.342019
  C       2.207648      4.103303      1.091211
  C       0.662544      1.099418     -0.506902
  O       0.000000      0.000000      0.000000
  O       1.067139      0.987171     -1.623577
  O       0.000000      0.000000      1.415273
  C      -1.273888      0.000000      1.915906
  C      -1.222115      0.066428      3.388315
  O      -2.257429     -0.025858      1.238757
  C      -2.415439     -0.122896      4.085953
  C      -2.441959     -0.034377      5.458877
  C      -1.272751      0.254962      6.172985
  C      -0.081778      0.450607      5.475180
  C      -0.058904      0.354404      4.095446
  S      -1.426667      0.349861      7.907885
  C       0.243161      0.684954      8.461945
  H       0.104163      7.346077      4.140874
  H      -0.388823      5.643873      4.210020
  H      -0.853239      6.664434      2.813856
  H      -0.937000      4.405134      2.334216
  H      -1.235074      2.374970      1.027490
  H       2.845447      2.558826     -0.245767
  H       3.172953      4.596710      1.102483
  H      -3.317691     -0.339000      3.527072
  H      -3.371885     -0.188084      5.994647
  H       0.834798      0.682521      5.999887
  H       0.870469      0.518836      3.566025
  H       0.184541      0.737294      9.549091
  H       0.608645      1.640295      8.083742
  H       0.925075     -0.119495      8.184590
36
Coordinates from ORCA-job /burg/berkelbach/users/eav2136/projects/peroxide_dissociation/05_range_separated_functional/wb97x-v-peroxide-dmf/wb97x-v-peroxide-dmf_opt E -1715.362744303771
  C       0.241546      6.485479      3.662793
  S       1.734004      6.080194      2.753343
  C       1.278140      4.675729      1.810029
  C      -0.006287      4.129394      1.788347
  C      -0.267988      2.993564      1.038215
  C       0.739471      2.392029      0.288624
  C       2.013560      2.962654      0.274940
  C       2.285078      4.081920      1.037345
  C       0.505031      1.203695     -0.567581
  O      -0.146620      0.102259     -0.038333
  O       0.849953      1.089979     -1.708489
  O      -0.104256      0.094645      1.376627
  C      -1.336987     -0.185615      1.914336
  C      -1.272876     -0.095128      3.391779
  O      -2.288823     -0.498045      1.257839
  C      -2.350484     -0.609362      4.119151
  C      -2.365508     -0.527721      5.495410
  C      -1.305228      0.082680      6.182358
  C      -0.234418      0.606643      5.455392
  C      -0.218857      0.514180      4.072025
  S      -1.433386      0.135358      7.927261
  C       0.079633      0.945705      8.449068
  H       0.494913      7.358192      4.268755
  H      -0.057719      5.671863      4.326597
  H      -0.578381      6.750487      2.992675
  H      -0.813179      4.580403      2.353795
  H      -1.278988      2.599375      1.017629
  H       2.796205      2.508298     -0.325168
  H       3.286405      4.503856      1.039328
  H      -3.171917     -1.076373      3.585594
  H      -3.203256     -0.937360      6.053048
  H       0.593944      1.091713      5.957878
  H       0.617148      0.934081      3.523117
  H       0.035114      0.975720      9.540058
  H       0.139432      1.968661      8.072626
  H       0.962060      0.377270      8.149117
36
Coordinates from ORCA-job /burg/berkelbach/users/eav2136/projects/peroxide_dissociation/05_range_separated_functional/wb97x-v-peroxide-dmf/wb97x-v-peroxide-dmf_opt E -1715.362877824115
  C       0.274141      6.162094      3.991367
  S       1.716703      5.897965      2.953640
  C       1.262773      4.538595      1.937294
  C       0.003150      3.933800      1.959328
  C      -0.259375      2.841834      1.143268
  C       0.721326      2.348569      0.284716
  C       1.971153      2.972180      0.236559
  C       2.243883      4.047819      1.062798
  C       0.480850      1.201887     -0.629515
  O      -0.135306      0.063709     -0.134627
  O       0.717037      1.179668     -1.805791
  O      -0.070068      0.028850      1.278189
  C      -1.300254     -0.258837      1.825560
  C      -1.247427     -0.086670      3.299939
  O      -2.256575     -0.566724      1.170126
  C      -2.319416     -0.581096      4.052248
  C      -2.338230     -0.425200      5.424165
  C      -1.289679      0.243111      6.078026
  C      -0.225261      0.746461      5.325814
  C      -0.204908      0.578893      3.947527
  S      -1.419865      0.393617      7.821684
  C       0.046406      1.319067      8.290310
  H       0.539457      6.985188      4.660647
  H       0.045947      5.279635      4.593874
  H      -0.597312      6.457392      3.403116
  H      -0.782554      4.301548      2.610492
  H      -1.250234      2.394776      1.167349
  H       2.737540      2.593366     -0.434983
  H       3.227735      4.511210      1.036757
  H      -3.133425     -1.093165      3.547331
  H      -3.171842     -0.819407      6.001230
  H       0.594143      1.274031      5.802070
  H       0.627487      0.985235      3.380211
  H      -0.002017      1.415678      9.378551
  H       0.049902      2.318631      7.849969
  H       0.960590      0.782708      8.026289
36
Coordinates from ORCA-job /burg/berkelbach/users/eav2136/projects/peroxide_dissociation/05_range_separated_functional/wb97x-v-peroxide-dmf/wb97x-v-peroxide-dmf_opt E -1715.363496129178
  C       0.023441      6.288553      3.784568
  S       1.559118      5.953679      2.915077
  C       1.181057      4.552798      1.924211
  C      -0.082453      3.960889      1.862953
  C      -0.287675      2.838952      1.072815
  C       0.754687      2.306784      0.318284
  C       2.010730      2.916301      0.351409
  C       2.226034      4.020163      1.156702
  C       0.570441      1.137516     -0.578220
  O      -0.058024      0.006351     -0.087400
  O       0.909468      1.071023     -1.726102
  O      -0.026259     -0.011031      1.327266
  C      -1.297324     -0.093971      1.848055
  C      -1.237548      0.024042      3.325479
  O      -2.278013     -0.238931      1.174844
  C      -2.383290     -0.312610      4.054139
  C      -2.392799     -0.194052      5.429481
  C      -1.257399      0.274517      6.109343
  C      -0.115901      0.615813      5.381170
  C      -0.107793      0.488488      3.999064
  S      -1.379201      0.392166      7.855899
  C       0.226574      1.019566      8.358543
  H       0.238574      7.130868      4.446586
  H      -0.287602      5.435539      4.391617
  H      -0.774293      6.578902      3.098115
  H      -0.915441      4.360929      2.429332
  H      -1.281066      2.400312      1.032360
  H       2.824531      2.508660     -0.241162
  H       3.212595      4.474661      1.194242
  H      -3.263865     -0.669717      3.529641
  H      -3.285810     -0.462213      5.987909
  H       0.773556      0.985023      5.878428
  H       0.786576      0.766565      3.451004
  H       0.179031      1.107838      9.446661
  H       0.423623      2.006470      7.935065
  H       1.028196      0.325577      8.098156
36
Coordinates from ORCA-job /burg/berkelbach/users/eav2136/projects/peroxide_dissociation/05_range_separated_functional/wb97x-v-peroxide-dmf/wb97x-v-peroxide-dmf_opt E -1715.363445802727
  C       0.029295      6.182720      3.897136
  S       1.549726      5.895049      2.985502
  C       1.168199      4.517354      1.963433
  C      -0.102867      3.947865      1.868003
  C      -0.309697      2.841728      1.057018
  C       0.739820      2.301955      0.319281
  C       2.002377      2.892941      0.382366
  C       2.218434      3.981783      1.207226
  C       0.554641      1.147085     -0.594895
  O      -0.065863      0.004342     -0.119467
  O       0.897304      1.098133     -1.741617
  O      -0.028009     -0.046312      1.295131
  C      -1.297134     -0.112595      1.824566
  C      -1.226773      0.007265      3.299563
  O      -2.284482     -0.229528      1.157351
  C      -2.372115     -0.310222      4.035648
  C      -2.376582     -0.171572      5.408694
  C      -1.236453      0.298786      6.077363
  C      -0.093523      0.616786      5.341878
  C      -0.090538      0.468809      3.962229
  S      -1.357584      0.459681      7.820518
  C       0.225983      1.157810      8.298063
  H       0.234898      7.035265      4.548087
  H      -0.234237      5.323616      4.517269
  H      -0.797321      6.441398      3.232838
  H      -0.940530      4.352722      2.422938
  H      -1.308754      2.421789      0.988263
  H       2.820777      2.483440     -0.201412
  H       3.210236      4.420578      1.269167
  H      -3.258619     -0.663866      3.519844
  H      -3.270788     -0.421649      5.972534
  H       0.799385      0.987928      5.830090
  H       0.802507      0.735821      3.407861
  H       0.179422      1.272678      9.383230
  H       0.384090      2.139554      7.848039
  H       1.051252      0.487282      8.051794
36
Coordinates from ORCA-job /burg/berkelbach/users/eav2136/projects/peroxide_dissociation/05_range_separated_functional/wb97x-v-peroxide-dmf/wb97x-v-peroxide-dmf_opt E -1715.363532689458
  C       0.017678      6.131456      3.943530
  S       1.551138      5.831837      3.057669
  C       1.166579      4.476145      2.005853
  C      -0.107125      3.916203      1.893800
  C      -0.315553      2.826457      1.061261
  C       0.735672      2.293269      0.321976
  C       2.000227      2.876391      0.400057
  C       2.217302      3.949662      1.245177
  C       0.547735      1.150420     -0.606941
  O      -0.067503      0.000002     -0.141247
  O       0.863579      1.125875     -1.761610
  O      -0.029556     -0.067964      1.272998
  C      -1.298925     -0.104241      1.808287
  C      -1.221205      0.011499      3.282403
  O      -2.289106     -0.220873      1.146069
  C      -2.360631     -0.311759      4.024239
  C      -2.362663     -0.160326      5.395940
  C      -1.226255      0.329099      6.056081
  C      -0.087594      0.648884      5.315205
  C      -0.086970      0.487955      3.936995
  S      -1.346847      0.515420      7.797418
  C       0.236637      1.221308      8.263157
  H       0.234849      6.946894      4.636638
  H      -0.289923      5.255365      4.517811
  H      -0.782462      6.447794      3.272031
  H      -0.945354      4.314377      2.452346
  H      -1.316317      2.413530      0.979480
  H       2.820188      2.473554     -0.185864
  H       3.211270      4.381155      1.319840
  H      -3.246742     -0.676419      3.515727
  H      -3.253617     -0.412614      5.963686
  H       0.802811      1.034071      5.796536
  H       0.800915      0.762055      3.378312
  H       0.177663      1.384430      9.341409
  H       0.407090      2.180857      7.771817
  H       1.059492      0.534651      8.057444
36
Coordinates from ORCA-job /burg/berkelbach/users/eav2136/projects/peroxide_dissociation/05_range_separated_functional/wb97x-v-peroxide-dmf/wb97x-v-peroxide-dmf_opt E -1715.363552164065
  C       0.029417      6.120999      3.963770
  S       1.574609      5.785210      3.111565
  C       1.177229      4.446194      2.041919
  C      -0.101359      3.897755      1.925990
  C      -0.320594      2.820481      1.079278
  C       0.724213      2.291229      0.327882
  C       1.994571      2.860976      0.412507
  C       2.222173      3.921299      1.271931
  C       0.521628      1.163324     -0.617350
  O      -0.072071      0.000320     -0.155357
  O       0.829424      1.151950     -1.774493
  O      -0.029672     -0.070446      1.257792
  C      -1.298255     -0.125567      1.795464
  C      -1.221120      0.005312      3.268845
  O      -2.287927     -0.248079      1.132921
  C      -2.349650     -0.341597      4.017254
  C      -2.350341     -0.180835      5.388326
  C      -1.224724      0.343717      6.040538
  C      -0.096846      0.686771      5.293321
  C      -0.097313      0.516693      3.915828
  S      -1.340204      0.532919      7.782421
  C       0.233016      1.268136      8.238399
  H       0.258630      6.907547      4.686322
  H      -0.328255      5.241604      4.503465
  H      -0.738669      6.488018      3.280493
  H      -0.935178      4.294811      2.492575
  H      -1.325014      2.415413      0.995284
  H       2.810683      2.459584     -0.180473
  H       3.220263      4.343537      1.349697
  H      -3.227634     -0.735446      3.515830
  H      -3.232002     -0.454345      5.961338
  H       0.787120      1.094016      5.769069
  H       0.783168      0.806248      3.352471
  H       0.178542      1.428383      9.317664
  H       0.380587      2.231991      7.747544
  H       1.068033      0.598297      8.025497
36
Coordinates from ORCA-job /burg/berkelbach/users/eav2136/projects/peroxide_dissociation/05_range_separated_functional/wb97x-v-peroxide-dmf/wb97x-v-peroxide-dmf_opt E -1715.363617946837
  C       0.025727      6.155614      3.919878
  S       1.566338      5.830526      3.055491
  C       1.175517      4.473761      2.005658
  C      -0.102245      3.922514      1.891688
  C      -0.316313      2.830860      1.061676
  C       0.732550      2.291570      0.322890
  C       2.002989      2.861495      0.407399
  C       2.225262      3.936093      1.250734
  C       0.533166      1.152057     -0.609781
  O      -0.061545     -0.004922     -0.135326
  O       0.830215      1.131625     -1.769661
  O      -0.025076     -0.056962      1.277956
  C      -1.297064     -0.098654      1.809164
  C      -1.225186      0.022085      3.284107
  O      -2.284697     -0.208900      1.140927
  C      -2.355706     -0.331334      4.027000
  C      -2.356977     -0.189338      5.400371
  C      -1.230408      0.323579      6.060720
  C      -0.101306      0.674849      5.318914
  C      -0.101112      0.523664      3.939002
  S      -1.343428      0.480933      7.805899
  C       0.233008      1.201886      8.273928
  H       0.244642      6.972608      4.611542
  H      -0.300306      5.286392      4.495188
  H      -0.762066      6.478286      3.236395
  H      -0.939662      4.329025      2.446603
  H      -1.320112      2.422643      0.979242
  H       2.822776      2.451143     -0.174771
  H       3.222876      4.360412      1.326524
  H      -3.233236     -0.719654      3.520050
  H      -3.239001     -0.470837      5.969301
  H       0.784740      1.070136      5.801370
  H       0.782371      0.814504      3.380443
  H       0.186795      1.326410      9.358492
  H       0.375829      2.181866      7.814203
  H       1.067123      0.540486      8.032315
36
Coordinates from ORCA-job /burg/berkelbach/users/eav2136/projects/peroxide_dissociation/05_range_separated_functional/wb97x-v-peroxide-dmf/wb97x-v-peroxide-dmf_opt E -1715.363636102955
  C       0.023841      6.179117      3.898912
  S       1.569690      5.836939      3.051029
  C       1.176802      4.479891      2.002578
  C      -0.104820      3.941003      1.876089
  C      -0.320550      2.849068      1.047165
  C       0.731334      2.295718      0.323661
  C       2.005739      2.853995      0.419370
  C       2.229227      3.929032      1.261565
  C       0.529887      1.155008     -0.607194
  O      -0.065410     -0.000653     -0.130738
  O       0.823369      1.133972     -1.767657
  O      -0.029244     -0.055437      1.282464
  C      -1.300799     -0.094081      1.814631
  C      -1.225786      0.017779      3.289438
  O      -2.289647     -0.198164      1.147740
  C      -2.353226     -0.342747      4.032911
  C      -2.351692     -0.207875      5.406784
  C      -1.225006      0.303968      6.067204
  C      -0.099662      0.664471      5.324340
  C      -0.101866      0.519252      3.944016
  S      -1.337110      0.457095      7.812526
  C       0.235842      1.184993      8.280772
  H       0.242677      6.998105      4.587838
  H      -0.314511      5.315909      4.475877
  H      -0.754744      6.503993      3.206189
  H      -0.944084      4.357610      2.420055
  H      -1.326791      2.449980      0.954963
  H       2.827768      2.433565     -0.151854
  H       3.229913      4.343504      1.346985
  H      -3.231014     -0.729933      3.525969
  H      -3.231692     -0.493966      5.976085
  H       0.784599      1.063906      5.806047
  H       0.777893      0.818264      3.384330
  H       0.184373      1.319746      9.363629
  H       0.379184      2.160621      7.812384
  H       1.071993      0.522770      8.049424
36
Coordinates from ORCA-job /burg/berkelbach/users/eav2136/projects/peroxide_dissociation/05_range_separated_functional/wb97x-v-peroxide-dmf/wb97x-v-peroxide-dmf_opt E -1715.363641779141
  C       0.010909      6.169620      3.902119
  S       1.561002      5.823545      3.063702
  C       1.170443      4.469207      2.010730
  C      -0.112616      3.937062      1.872061
  C      -0.326728      2.848056      1.038867
  C       0.728829      2.290495      0.324290
  C       2.005329      2.840956      0.433025
  C       2.226685      3.913311      1.279217
  C       0.527149      1.152419     -0.610144
  O      -0.059744     -0.006876     -0.133280
  O       0.820203      1.134003     -1.770630
  O      -0.026441     -0.060089      1.279917
  C      -1.299045     -0.077651      1.810856
  C      -1.222443      0.029881      3.285626
  O      -2.288755     -0.169820      1.143760
  C      -2.350576     -0.327223      4.029314
  C      -2.346510     -0.196599      5.403527
  C      -1.216576      0.307605      6.064045
  C      -0.090856      0.665776      5.320662
  C      -0.095334      0.524004      3.940038
  S      -1.326424      0.456292      7.809873
  C       0.244141      1.189287      8.277983
  H       0.227874      6.986912      4.593474
  H      -0.333956      5.306820      4.475704
  H      -0.762064      6.497884      3.204837
  H      -0.954394      4.356802      2.409437
  H      -1.333604      2.453098      0.937601
  H       2.830623      2.416641     -0.130397
  H       3.228849      4.321668      1.374927
  H      -3.231098     -0.708154      3.522511
  H      -3.227130     -0.480082      5.973001
  H       0.795185      1.061475      5.801967
  H       0.784349      0.821765      3.379706
  H       0.195836      1.315369      9.361934
  H       0.380229      2.169281      7.816804
  H       1.083138      0.533680      8.038468
36
Coordinates from ORCA-job /burg/berkelbach/users/eav2136/projects/peroxide_dissociation/05_range_separated_functional/wb97x-v-peroxide-dmf/wb97x-v-peroxide-dmf_opt E -1715.363659558206
  C       0.001181      6.180544      3.888445
  S       1.556639      5.824136      3.064360
  C       1.168186      4.468098      2.012700
  C      -0.115894      3.940388      1.866766
  C      -0.328799      2.850657      1.034001
  C       0.729237      2.288432      0.326662
  C       2.007452      2.833168      0.443856
  C       2.227257      3.906196      1.289773
  C       0.527459      1.150463     -0.608536
  O      -0.055059     -0.010293     -0.130479
  O       0.816219      1.133644     -1.770166
  O      -0.024081     -0.061258      1.282641
  C      -1.297663     -0.076098      1.811537
  C      -1.222824      0.035897      3.286267
  O      -2.286623     -0.164430      1.142674
  C      -2.350407     -0.322623      4.030230
  C      -2.346262     -0.191617      5.404475
  C      -1.217072      0.314841      6.064754
  C      -0.092056      0.674777      5.321037
  C      -0.096626      0.532884      3.940351
  S      -1.324818      0.457671      7.811218
  C       0.254840      1.168930      8.282450
  H       0.216682      6.997663      4.580590
  H      -0.353889      5.320610      4.460207
  H      -0.763611      6.512272      3.183773
  H      -0.959589      4.364400      2.397952
  H      -1.336408      2.458870      0.926733
  H       2.835096      2.404413     -0.112934
  H       3.230529      4.310580      1.391668
  H      -3.230205     -0.705854      3.523719
  H      -3.226026     -0.477342      5.974325
  H       0.793814      1.071343      5.802228
  H       0.782763      0.831122      3.379586
  H       0.208544      1.289765      9.367167
  H       0.402719      2.149715      7.826476
  H       1.085774      0.504459      8.039023
36
Coordinates from ORCA-job /burg/berkelbach/users/eav2136/projects/peroxide_dissociation/05_range_separated_functional/wb97x-v-peroxide-dmf/wb97x-v-peroxide-dmf_opt E -1715.363661223508
  C       0.006860      6.166307      3.904616
  S       1.561356      5.811549      3.077958
  C       1.170208      4.460639      2.020778
  C      -0.115237      3.937260      1.871515
  C      -0.330473      2.851113      1.034604
  C       0.726671      2.288518      0.326153
  C       2.006431      2.828954      0.446747
  C       2.228396      3.898375      1.296728
  C       0.522272      1.153374     -0.612219
  O      -0.057438     -0.009296     -0.135550
  O       0.805937      1.140707     -1.775173
  O      -0.025187     -0.061865      1.277442
  C      -1.298248     -0.083215      1.807358
  C      -1.222771      0.033536      3.281849
  O      -2.287121     -0.180597      1.139541
  C      -2.347006     -0.331072      4.028060
  C      -2.342408     -0.195912      5.401935
  C      -1.216248      0.320867      6.059539
  C      -0.094687      0.686935      5.313583
  C      -0.099619      0.540964      3.933316
  S      -1.323127      0.467678      7.805680
  C       0.252402      1.190485      8.273173
  H       0.224750      6.977438      4.603116
  H      -0.350898      5.303047      4.469729
  H      -0.756859      6.505819      3.202464
  H      -0.958202      4.361698      2.403665
  H      -1.339076      2.462423      0.924830
  H       2.833524      2.399553     -0.110483
  H       3.232823      4.299339      1.401374
  H      -3.224464     -0.722220      3.523450
  H      -3.219436     -0.486472      5.973658
  H       0.788727      1.091520      5.792785
  H       0.776966      0.843938      3.370602
  H       0.208369      1.309597      9.358220
  H       0.391712      2.172936      7.818034
  H       1.087580      0.532500      8.026451
36
Coordinates from ORCA-job /burg/berkelbach/users/eav2136/projects/peroxide_dissociation/05_range_separated_functional/wb97x-v-peroxide-dmf/wb97x-v-peroxide-dmf_opt E -1715.363661830223
  C       0.001252      6.162852      3.904958
  S       1.556778      5.809775      3.079553
  C       1.167327      4.459546      2.020971
  C      -0.118131      3.937244      1.868236
  C      -0.332072      2.851334      1.030712
  C       0.726523      2.287776      0.325273
  C       2.006337      2.827279      0.449035
  C       2.226913      3.896527      1.299560
  C       0.523540      1.152052     -0.612709
  O      -0.055329     -0.010794     -0.135574
  O       0.807649      1.139087     -1.775527
  O      -0.023490     -0.062637      1.277543
  C      -1.296631     -0.079801      1.807309
  C      -1.221019      0.036531      3.281812
  O      -2.285763     -0.173509      1.139417
  C      -2.347143     -0.323274      4.027489
  C      -2.342540     -0.188430      5.401348
  C      -1.214342      0.323062      6.059561
  C      -0.091116      0.684955      5.314069
  C      -0.096046      0.539203      3.933803
  S      -1.322019      0.471070      7.805484
  C       0.255764      1.188198      8.273982
  H       0.217891      6.973568      4.604300
  H      -0.356432      5.298907      4.469055
  H      -0.762036      6.502369      3.202352
  H      -0.962042      4.362248      2.398383
  H      -1.340602      2.463146      0.918400
  H       2.834496      2.397079     -0.105956
  H       3.231364      4.296637      1.406965
  H      -3.226005     -0.710428      3.522281
  H      -3.221053     -0.475142      5.972691
  H       0.793483      1.086367      5.793676
  H       0.781807      0.838937      3.371357
  H       0.210754      1.309166      9.358761
  H       0.399998      2.169297      7.817512
  H       1.088415      0.526225      8.029448
