18
Coordinates from ORCA-job /burg/berkelbach/users/eav2136/projects/peroxide_dissociation/05_range_separated_functional/wb97x-d-radical-dmf/wb97x-d-radical-dmf_opt E -857.710966327884
  C      -0.074257      6.450078      3.546369
  S       1.489796      6.080482      2.755983
  C       1.149367      4.636622      1.833692
  C      -0.091366      4.003053      1.793384
  C      -0.258269      2.842695      1.059363
  C       0.800510      2.302714      0.339239
  C       2.028757      2.960408      0.342019
  C       2.207648      4.103303      1.091211
  C       0.662544      1.099418     -0.506902
  O       0.000000      0.000000      0.000000
  O       1.067139      0.987171     -1.623577
  H       0.104163      7.346077      4.140874
  H      -0.388823      5.643873      4.210020
  H      -0.853239      6.664434      2.813856
  H      -0.937000      4.405134      2.334216
  H      -1.235074      2.374970      1.027490
  H       2.845447      2.558826     -0.245767
  H       3.172953      4.596710      1.102483
18
Coordinates from ORCA-job /burg/berkelbach/users/eav2136/projects/peroxide_dissociation/05_range_separated_functional/wb97x-d-radical-dmf/wb97x-d-radical-dmf_opt E -857.715208453432
  C      -0.070461      6.444986      3.565898
  S       1.473257      6.096811      2.724384
  C       1.138341      4.642931      1.810796
  C      -0.101329      4.005810      1.776696
  C      -0.267151      2.845744      1.041567
  C       0.793476      2.315359      0.316447
  C       2.032241      2.956902      0.337989
  C       2.204437      4.103627      1.079791
  C       0.646937      1.110066     -0.514937
  O      -0.034137      0.083981      0.008561
  O       1.144515      0.907623     -1.590971
  H       0.109682      7.351590      4.143543
  H      -0.344053      5.642649      4.250313
  H      -0.878418      6.635209      2.860324
  H      -0.947430      4.406353      2.317691
  H      -1.239337      2.366994      1.019449
  H       2.857805      2.546734     -0.231386
  H       3.171921      4.592599      1.097799
18
Coordinates from ORCA-job /burg/berkelbach/users/eav2136/projects/peroxide_dissociation/05_range_separated_functional/wb97x-d-radical-dmf/wb97x-d-radical-dmf_opt E -857.715602647263
  C      -0.083741      6.447023      3.562228
  S       1.458546      6.099154      2.714669
  C       1.140640      4.634063      1.807417
  C      -0.092352      3.983523      1.783055
  C      -0.248145      2.824585      1.043150
  C       0.820364      2.314883      0.312507
  C       2.059744      2.961519      0.334364
  C       2.216488      4.107936      1.075586
  C       0.668956      1.097991     -0.486870
  O      -0.127301      0.236443     -0.010153
  O       1.101117      0.850811     -1.602737
  H       0.097600      7.354586      4.137958
  H      -0.352641      5.647009      4.249901
  H      -0.894302      6.637256      2.861395
  H      -0.939940      4.372183      2.330519
  H      -1.210427      2.325700      1.029216
  H       2.895436      2.557201     -0.223833
  H       3.180254      4.604101      1.095581
18
Coordinates from ORCA-job /burg/berkelbach/users/eav2136/projects/peroxide_dissociation/05_range_separated_functional/wb97x-d-radical-dmf/wb97x-d-radical-dmf_opt E -857.717514108929
  C      -0.078426      6.444321      3.561730
  S       1.469545      6.091690      2.728611
  C       1.142228      4.634693      1.815289
  C      -0.093833      3.991366      1.788700
  C      -0.259093      2.839578      1.039715
  C       0.803538      2.325353      0.303759
  C       2.042211      2.972047      0.320975
  C       2.210207      4.111052      1.073220
  C       0.644727      1.103260     -0.496435
  O      -0.097469      0.174028     -0.001907
  O       1.157418      0.834362     -1.571998
  H       0.108303      7.338649      4.156203
  H      -0.367438      5.634525      4.230844
  H      -0.877470      6.658534      2.853186
  H      -0.937165      4.380994      2.342258
  H      -1.225648      2.350518      1.021466
  H       2.872607      2.567822     -0.245012
  H       3.176053      4.603174      1.093349
18
Coordinates from ORCA-job /burg/berkelbach/users/eav2136/projects/peroxide_dissociation/05_range_separated_functional/wb97x-d-radical-dmf/wb97x-d-radical-dmf_opt E -857.717863781737
  C      -0.071103      6.430809      3.579742
  S       1.457341      6.115664      2.697459
  C       1.134864      4.651341      1.794685
  C      -0.101740      4.009465      1.764208
  C      -0.262342      2.850384      1.025572
  C       0.805153      2.327021      0.303331
  C       2.044577      2.970402      0.327122
  C       2.208416      4.117442      1.068927
  C       0.648133      1.093547     -0.479881
  O      -0.135045      0.175713     -0.023320
  O       1.191468      0.805320     -1.537296
  H       0.103957      7.345241      4.146645
  H      -0.304740      5.627306      4.277395
  H      -0.903049      6.598306      2.896683
  H      -0.949074      4.406495      2.306018
  H      -1.230748      2.364985      1.000744
  H       2.879229      2.558689     -0.227344
  H       3.174996      4.607838      1.093264
18
Coordinates from ORCA-job /burg/berkelbach/users/eav2136/projects/peroxide_dissociation/05_range_separated_functional/wb97x-d-radical-dmf/wb97x-d-radical-dmf_opt E -857.719105665443
  C      -0.070018      6.430371      3.581107
  S       1.453585      6.129786      2.686331
  C       1.135592      4.660113      1.791238
  C      -0.095956      4.008859      1.773204
  C      -0.253058      2.846982      1.038816
  C       0.811042      2.329978      0.307690
  C       2.043953      2.978987      0.323491
  C       2.207109      4.130649      1.061965
  C       0.635800      1.083165     -0.444973
  O      -0.225236      0.180252     -0.154661
  O       1.258471      0.754458     -1.460973
  H       0.101929      7.347632      4.144676
  H      -0.289064      5.626302      4.282684
  H      -0.909900      6.588308      2.905028
  H      -0.941037      4.401830      2.320474
  H      -1.221298      2.360040      1.013618
  H       2.877890      2.571148     -0.235845
  H       3.170491      4.627107      1.080083
18
Coordinates from ORCA-job /burg/berkelbach/users/eav2136/projects/peroxide_dissociation/05_range_separated_functional/wb97x-d-radical-dmf/wb97x-d-radical-dmf_opt E -857.719573111261
  C      -0.062924      6.429960      3.590140
  S       1.446627      6.141804      2.668075
  C       1.130389      4.663592      1.785811
  C      -0.100578      4.010004      1.774477
  C      -0.255965      2.845004      1.044987
  C       0.808653      2.328310      0.313156
  C       2.039004      2.979171      0.322529
  C       2.201357      4.133928      1.056669
  C       0.619598      1.084462     -0.431358
  O      -0.278289      0.219469     -0.280854
  O       1.341139      0.697490     -1.378696
  H       0.096375      7.371569      4.116171
  H      -0.240429      5.646432      4.325843
  H      -0.923491      6.539311      2.930553
  H      -0.944472      4.403354      2.323615
  H      -1.222684      2.355125      1.022196
  H       2.872807      2.573718     -0.238756
  H       3.163177      4.633264      1.069395
18
Coordinates from ORCA-job /burg/berkelbach/users/eav2136/projects/peroxide_dissociation/05_range_separated_functional/wb97x-d-radical-dmf/wb97x-d-radical-dmf_opt E -857.720218057625
  C      -0.066339      6.439492      3.581625
  S       1.451197      6.131018      2.678614
  C       1.130898      4.656317      1.791013
  C      -0.098613      3.998400      1.787627
  C      -0.255817      2.835358      1.055991
  C       0.805999      2.323515      0.316222
  C       2.035179      2.979450      0.315760
  C       2.197599      4.133062      1.049615
  C       0.624783      1.089296     -0.442811
  O      -0.293646      0.249411     -0.290699
  O       1.371783      0.690838     -1.367321
  H       0.112954      7.356757      4.142825
  H      -0.285103      5.637624      4.285914
  H      -0.909140      6.600980      2.910692
  H      -0.938624      4.384658      2.348088
  H      -1.217024      2.335003      1.048650
  H       2.866368      2.579028     -0.252609
  H       3.157841      4.635760      1.054756
18
Coordinates from ORCA-job /burg/berkelbach/users/eav2136/projects/peroxide_dissociation/05_range_separated_functional/wb97x-d-radical-dmf/wb97x-d-radical-dmf_opt E -857.720552056409
  C      -0.067243      6.442204      3.576222
  S       1.455305      6.126190      2.683725
  C       1.131712      4.654768      1.791841
  C      -0.094894      3.989992      1.802429
  C      -0.255106      2.828166      1.070877
  C       0.800984      2.320394      0.321766
  C       2.027064      2.984419      0.304004
  C       2.190767      4.139955      1.033531
  C       0.626579      1.092653     -0.444644
  O      -0.356394      0.320452     -0.384642
  O       1.453757      0.631037     -1.274867
  H       0.121653      7.341723      4.162132
  H      -0.310020      5.627122      4.257237
  H      -0.898738      6.636363      2.900231
  H      -0.928833      4.368499      2.377558
  H      -1.208631      2.313753      1.085385
  H       2.854355      2.589610     -0.273832
  H       3.147978      4.648668      1.025003
18
Coordinates from ORCA-job /burg/berkelbach/users/eav2136/projects/peroxide_dissociation/05_range_separated_functional/wb97x-d-radical-dmf/wb97x-d-radical-dmf_opt E -857.720624388583
  C      -0.071229      6.451657      3.565698
  S       1.464265      6.111653      2.704862
  C       1.138231      4.643309      1.808975
  C      -0.085938      3.974192      1.825853
  C      -0.249395      2.817008      1.087407
  C       0.799778      2.318972      0.322990
  C       2.023690      2.987035      0.299933
  C       2.191688      4.136865      1.037705
  C       0.624640      1.097913     -0.455687
  O      -0.376720      0.343926     -0.431166
  O       1.464318      0.627293     -1.267521
  H       0.112578      7.360787      4.138348
  H      -0.329643      5.650468      4.257185
  H      -0.890421      6.637322      2.872194
  H      -0.916235      4.346775      2.409741
  H      -1.202043      2.300597      1.105461
  H       2.846155      2.600492     -0.290304
  H       3.146576      4.649705      1.022280
18
Coordinates from ORCA-job /burg/berkelbach/users/eav2136/projects/peroxide_dissociation/05_range_separated_functional/wb97x-d-radical-dmf/wb97x-d-radical-dmf_opt E -857.720656224961
  C      -0.069717      6.449569      3.568967
  S       1.462816      6.114430      2.701219
  C       1.136894      4.645831      1.806127
  C      -0.086222      3.975207      1.825120
  C      -0.249848      2.817789      1.086812
  C       0.798768      2.319401      0.322393
  C       2.022436      2.988085      0.299191
  C       2.190668      4.138670      1.035836
  C       0.625772      1.096653     -0.455270
  O      -0.388529      0.360476     -0.458264
  O       1.478905      0.604838     -1.238366
  H       0.110682      7.364642      4.133224
  H      -0.318262      5.652245      4.268475
  H      -0.894108      6.623409      2.878353
  H      -0.916072      4.347095      2.409967
  H      -1.203012      2.302098      1.104528
  H       2.844352      2.602660     -0.292600
  H       3.144773      4.652869      1.018242
18
Coordinates from ORCA-job /burg/berkelbach/users/eav2136/projects/peroxide_dissociation/05_range_separated_functional/wb97x-d-radical-dmf/wb97x-d-radical-dmf_opt E -857.720676466386
  C      -0.068970      6.446956      3.570671
  S       1.461844      6.116779      2.698235
  C       1.136262      4.648123      1.803618
  C      -0.086046      3.976409      1.824377
  C      -0.250039      2.819065      1.085975
  C       0.798192      2.320557      0.321637
  C       2.021325      2.990173      0.297138
  C       2.189521      4.141983      1.031761
  C       0.627352      1.095360     -0.452527
  O      -0.399586      0.376026     -0.480527
  O       1.491459      0.582377     -1.206678
  H       0.111767      7.359804      4.138363
  H      -0.316125      5.646648      4.267294
  H      -0.894251      6.623128      2.881741
  H      -0.914931      4.346611      2.411705
  H      -1.202833      2.302742      1.105646
  H       2.842575      2.605578     -0.296244
  H       3.142780      4.657650      1.011768
18
Coordinates from ORCA-job /burg/berkelbach/users/eav2136/projects/peroxide_dissociation/05_range_separated_functional/wb97x-d-radical-dmf/wb97x-d-radical-dmf_opt E -857.720666993230
  C      -0.066018      6.437819      3.578830
  S       1.457967      6.124008      2.688651
  C       1.133394      4.655821      1.793411
  C      -0.088781      3.984290      1.814128
  C      -0.252196      2.825529      1.077951
  C       0.797549      2.324134      0.318342
  C       2.019959      2.995127      0.291391
  C       2.186865      4.150155      1.020931
  C       0.631433      1.091135     -0.443073
  O      -0.417694      0.404913     -0.514126
  O       1.514847      0.532541     -1.135104
  H       0.114775      7.346548      4.152954
  H      -0.302611      5.630034      4.270522
  H      -0.898191      6.615386      2.898673
  H      -0.917412      4.353650      2.402291
  H      -1.204344      2.308189      1.100433
  H       2.841435      2.609486     -0.301070
  H       3.139318      4.667204      0.998819
18
Coordinates from ORCA-job /burg/berkelbach/users/eav2136/projects/peroxide_dissociation/05_range_separated_functional/wb97x-d-radical-dmf/wb97x-d-radical-dmf_opt E -857.720670964381
  C      -0.066094      6.437889      3.579601
  S       1.457470      6.124255      2.688408
  C       1.132897      4.656469      1.792082
  C      -0.089571      3.985300      1.811861
  C      -0.252207      2.825918      1.076490
  C       0.798366      2.324119      0.317848
  C       2.020777      2.995105      0.291143
  C       2.186834      4.150418      1.020542
  C       0.631202      1.090174     -0.441798
  O      -0.415388      0.399801     -0.504075
  O       1.512557      0.534886     -1.140551
  H       0.116927      7.343405      4.158111
  H      -0.304398      5.627308      4.267426
  H      -0.898124      6.620761      2.900728
  H      -0.918973      4.355569      2.398353
  H      -1.204257      2.308442      1.098454
  H       2.842813      2.608954     -0.300103
  H       3.139465      4.667196      0.999431
18
Coordinates from ORCA-job /burg/berkelbach/users/eav2136/projects/peroxide_dissociation/05_range_separated_functional/wb97x-d-radical-dmf/wb97x-d-radical-dmf_opt E -857.720668312875
  C      -0.065953      6.436374      3.581288
  S       1.456870      6.124928      2.687840
  C       1.132554      4.657721      1.790097
  C      -0.090329      3.987191      1.808604
  C      -0.252162      2.827270      1.073997
  C       0.799408      2.324768      0.316848
  C       2.021657      2.995949      0.289953
  C       2.186716      4.151755      1.018925
  C       0.631097      1.088885     -0.439246
  O      -0.416876      0.400400     -0.499764
  O       1.512991      0.529563     -1.135028
  H       0.118003      7.339889      4.162623
  H      -0.303073      5.623427      4.266742
  H      -0.899276      6.621501      2.904647
  H      -0.920628      4.358511      2.393152
  H      -1.204090      2.309634      1.095454
  H       2.844101      2.609501     -0.300467
  H       3.139287      4.668699      0.998289
18
Coordinates from ORCA-job /burg/berkelbach/users/eav2136/projects/peroxide_dissociation/05_range_separated_functional/wb97x-d-radical-dmf/wb97x-d-radical-dmf_opt E -857.720670169818
  C      -0.066274      6.436799      3.580648
  S       1.457247      6.124349      2.688751
  C       1.132905      4.657248      1.790787
  C      -0.089909      3.986542      1.809539
  C      -0.251710      2.826766      1.074735
  C       0.799696      2.324631      0.317033
  C       2.021846      2.995875      0.290042
  C       2.186903      4.151481      1.019387
  C       0.630578      1.089160     -0.439633
  O      -0.417380      0.400831     -0.500101
  O       1.512288      0.530488     -1.136625
  H       0.117501      7.340649      4.161526
  H      -0.303876      5.624309      4.266481
  H      -0.899247      6.621569      2.903471
  H      -0.920187      4.357814      2.394137
  H      -1.203568      2.308993      1.096116
  H       2.844128      2.609817     -0.300866
  H       3.139355      4.668647      0.998526
