! CCSD cc-pVTZ TIGHTSCF PAL8
%maxcore 5000
%scf
efield 0.0194469038114986645, 0.0, 0.0
end
%paras R = 2.0, -0.25, 50
end
%casscf
nel 6
norb 6
mult 1
end
* xyz 0 1
 C -0.07425707479814 6.45007760366319 3.54636897867849
 S 1.48979584793712 6.08048225687873 2.75598260255209
 C 1.14936654141856 4.63662227087222 1.83369205968326
 C -0.09136557109480 4.00305286554088 1.79338352444578
 C -0.25826928718407 2.84269542505768 1.05936282240646
 C 0.80050967676942 2.30271389692801 0.33923873907232
 C 2.02875697338567 2.96040825022008 0.34201900047512
 C 2.20764771123846 4.10330343094754 1.09121055149825
 C 0.66254428710301 1.09941809961861 -0.50690159852297
 O 0.00000000000000 0.00000000000000 0.00000000000000
 O 1.06713866538631 0.98717129960580 -1.62357736506780
 O 0.00000000000000 0.00000000000000 {1.41527284498687 + R}
 C -1.27388770944479 0.00000000000000 {1.91590645535523 + R}
 C -1.22211457253867 0.06642777988277 {3.38831477989974 + R}
 O -2.25742922897412 -0.02585779042736 {1.23875652957256 + R}
 C -2.41543940252313 -0.12289611375011 {4.08595252694906 + R}
 C -2.44195923478874 -0.03437680070658 {5.45887710053507 + R}
 C -1.27275068522395 0.25496212808386 {6.17298493884884 + R}
 C -0.08177795586127 0.45060655108151 {5.47518008098465 + R}
 C -0.05890441770979 0.35440376081578 {4.09544628781756 + R}
 S -1.42666733932306 0.34986111841343 {7.90788531117200 + R}
 C 0.24316058065577 0.68495422113854 {8.46194522255982 + R}
 H 0.10416325535368 7.34607684664392 4.14087383255362
 H -0.38882275224257 5.64387294862163 4.21002028523424
 H -0.85323854703301 6.66443357654391 2.81385647784552
 H -0.93700004363157 4.40513362395569 2.33421606140266
 H -1.23507439683237 2.37497021944690 1.02749021968162
 H 2.84544686618639 2.55882587909200 -0.24576673820719
 H 3.17295340310622 4.59670965109571 1.10248346369500
 H -3.31769085302541 -0.33900022625314 {3.52707230389961 + R}
 H -3.37188538809726 -0.18808364875198 {5.99464715790180 + R}
 H 0.83479761044422 0.68252071425859 {5.99988733430662 + R}
 H 0.87046926144621 0.51883617942438 {3.56602510045047 + R}
 H 0.18454114424639 0.73729393679500 {9.54909076814075 + R}
 H 0.60864534290486 1.64029462399245 {8.08374213903351 + R}
 H 0.92507514742305 -0.11949528816653 {8.18458994466104 + R}
*
