18
Coordinates from ORCA-job /burg/berkelbach/users/eav2136/projects/peroxide_dissociation/04_solvated_radical/dmf/dmf_radical_opt E -857.205657949605
  C      -0.074257      6.450078      3.546369
  S       1.489796      6.080482      2.755983
  C       1.149367      4.636622      1.833692
  C      -0.091366      4.003053      1.793384
  C      -0.258269      2.842695      1.059363
  C       0.800510      2.302714      0.339239
  C       2.028757      2.960408      0.342019
  C       2.207648      4.103303      1.091211
  C       0.662544      1.099418     -0.506902
  O       0.000000      0.000000      0.000000
  O       1.067139      0.987171     -1.623577
  H       0.104163      7.346077      4.140874
  H      -0.388823      5.643873      4.210020
  H      -0.853239      6.664434      2.813856
  H      -0.937000      4.405134      2.334216
  H      -1.235074      2.374970      1.027490
  H       2.845447      2.558826     -0.245767
  H       3.172953      4.596710      1.102483
18
Coordinates from ORCA-job /burg/berkelbach/users/eav2136/projects/peroxide_dissociation/04_solvated_radical/dmf/dmf_radical_opt E -857.211754020139
  C      -0.072265      6.440013      3.554323
  S       1.477290      6.083276      2.731590
  C       1.141960      4.638104      1.817828
  C      -0.101056      4.003105      1.785215
  C      -0.269090      2.847001      1.048052
  C       0.791532      2.316812      0.317585
  C       2.033203      2.957722      0.337985
  C       2.208554      4.100928      1.082059
  C       0.640854      1.117181     -0.511917
  O      -0.010308      0.090245      0.026656
  O       1.124614      0.931752     -1.600739
  H       0.108992      7.342831      4.139477
  H      -0.360872      5.634386      4.230166
  H      -0.868969      6.640169      2.837277
  H      -0.944923      4.404062      2.330382
  H      -1.241926      2.369112      1.025730
  H       2.856385      2.548760     -0.236337
  H       3.176322      4.590510      1.098622
18
Coordinates from ORCA-job /burg/berkelbach/users/eav2136/projects/peroxide_dissociation/04_solvated_radical/dmf/dmf_radical_opt E -857.212731753995
  C      -0.084055      6.429860      3.544636
  S       1.458891      6.070892      2.714847
  C       1.142949      4.627777      1.813339
  C      -0.100329      3.983528      1.787990
  C      -0.257176      2.832434      1.048063
  C       0.816777      2.316716      0.313975
  C       2.065212      2.960018      0.339221
  C       2.226007      4.101256      1.079546
  C       0.652623      1.109881     -0.478792
  O      -0.066080      0.262594      0.056452
  O       1.059810      0.907737     -1.626776
  H       0.100489      7.336588      4.124214
  H      -0.364046      5.625903      4.225957
  H      -0.883453      6.624896      2.829646
  H      -0.944801      4.377805      2.337364
  H      -1.220504      2.335668      1.027584
  H       2.897606      2.554230     -0.223730
  H       3.190373      4.598185      1.100416
18
Coordinates from ORCA-job /burg/berkelbach/users/eav2136/projects/peroxide_dissociation/04_solvated_radical/dmf/dmf_radical_opt E -857.215951302067
  C      -0.075199      6.433381      3.553224
  S       1.465284      6.066506      2.723156
  C       1.138603      4.629850      1.816798
  C      -0.108468      3.994922      1.782580
  C      -0.273074      2.851028      1.032611
  C       0.796647      2.327206      0.299304
  C       2.046254      2.964254      0.332092
  C       2.216512      4.099807      1.081582
  C       0.627670      1.107379     -0.496405
  O       0.011822      0.166977      0.091038
  O       1.093473      0.913328     -1.621238
  H       0.117299      7.333380      4.139150
  H      -0.363684      5.626640      4.227758
  H      -0.871601      6.641044      2.838265
  H      -0.950533      4.392070      2.332898
  H      -1.240063      2.363783      1.004684
  H       2.875619      2.554392     -0.231541
  H       3.183736      4.590022      1.107997
18
Coordinates from ORCA-job /burg/berkelbach/users/eav2136/projects/peroxide_dissociation/04_solvated_radical/dmf/dmf_radical_opt E -857.216864994829
  C      -0.073166      6.430226      3.557913
  S       1.456683      6.072470      2.706566
  C       1.133853      4.634927      1.808917
  C      -0.114709      4.000735      1.768999
  C      -0.273981      2.855865      1.021899
  C       0.800357      2.328558      0.294786
  C       2.052640      2.959522      0.342335
  C       2.218834      4.098347      1.086676
  C       0.631986      1.095645     -0.490147
  O       0.039374      0.152021      0.119709
  O       1.049205      0.942399     -1.642207
  H       0.120536      7.335509      4.135144
  H      -0.342659      5.624149      4.240952
  H      -0.881548      6.625380      2.852883
  H      -0.959252      4.401223      2.313099
  H      -1.239758      2.366590      0.988609
  H       2.885808      2.544359     -0.211815
  H       3.186093      4.588042      1.119633
18
Coordinates from ORCA-job /burg/berkelbach/users/eav2136/projects/peroxide_dissociation/04_solvated_radical/dmf/dmf_radical_opt E -857.218552681500
  C      -0.074442      6.442147      3.541636
  S       1.452322      6.036510      2.714846
  C       1.129554      4.617258      1.825045
  C      -0.124090      3.982149      1.778563
  C      -0.274448      2.849362      1.022385
  C       0.805933      2.326790      0.286466
  C       2.060572      2.955264      0.351537
  C       2.224486      4.086160      1.102354
  C       0.618155      1.075540     -0.495271
  O       0.140356      0.138355      0.178734
  O       0.945702      1.052064     -1.696871
  H       0.140439      7.341468      4.119916
  H      -0.374026      5.641220      4.218033
  H      -0.862690      6.658454      2.820156
  H      -0.966311      4.379095      2.328712
  H      -1.233783      2.349517      0.977916
  H       2.893937      2.543762     -0.204598
  H       3.188629      4.580853      1.144395
18
Coordinates from ORCA-job /burg/berkelbach/users/eav2136/projects/peroxide_dissociation/04_solvated_radical/dmf/dmf_radical_opt E -857.218849468528
  C      -0.075821      6.450846      3.533771
  S       1.456595      6.029458      2.725334
  C       1.131012      4.612777      1.833221
  C      -0.124701      3.979874      1.783114
  C      -0.273736      2.844494      1.031131
  C       0.806606      2.318537      0.296932
  C       2.060069      2.949456      0.358848
  C       2.226052      4.078616      1.111965
  C       0.618377      1.077152     -0.505745
  O       0.200428      0.106388      0.165433
  O       0.886299      1.097826     -1.716177
  H       0.139936      7.350599      4.111206
  H      -0.389353      5.654302      4.209169
  H      -0.853882      6.669957      2.802125
  H      -0.966765      4.379116      2.332168
  H      -1.233053      2.343576      0.988506
  H       2.891385      2.540757     -0.202772
  H       3.190848      4.572236      1.155724
18
Coordinates from ORCA-job /burg/berkelbach/users/eav2136/projects/peroxide_dissociation/04_solvated_radical/dmf/dmf_radical_opt E -857.219005037977
  C      -0.070192      6.447589      3.543321
  S       1.449567      6.044635      2.701703
  C       1.123613      4.624113      1.818252
  C      -0.138824      4.002161      1.752666
  C      -0.283435      2.855240      1.018921
  C       0.803249      2.309236      0.308227
  C       2.060757      2.932940      0.380581
  C       2.226409      4.067439      1.124644
  C       0.619321      1.072573     -0.509034
  O       0.346506      0.060403      0.170127
  O       0.771155      1.144330     -1.730989
  H       0.142777      7.358110      4.104650
  H      -0.351897      5.652905      4.234879
  H      -0.869069      6.641684      2.827236
  H      -0.985556      4.419245      2.281087
  H      -1.245674      2.358798      0.972470
  H       2.896271      2.512834     -0.166682
  H       3.195318      4.551731      1.181895
18
Coordinates from ORCA-job /burg/berkelbach/users/eav2136/projects/peroxide_dissociation/04_solvated_radical/dmf/dmf_radical_opt E -857.219048331255
  C      -0.083312      6.475493      3.502412
  S       1.472104      5.997771      2.770977
  C       1.139229      4.592738      1.863384
  C      -0.120276      3.963751      1.808295
  C      -0.272679      2.831410      1.053483
  C       0.802303      2.308714      0.309888
  C       2.059058      2.936396      0.375185
  C       2.231446      4.057413      1.137716
  C       0.613652      1.091925     -0.533774
  O       0.422793      0.049012      0.129308
  O       0.668932      1.201803     -1.759740
  H       0.137554      7.361010      4.099459
  H      -0.463728      5.686110      4.151418
  H      -0.811622      6.730338      2.732254
  H      -0.959361      4.365547      2.360123
  H      -1.233143      2.330126      1.017337
  H       2.888511      2.530981     -0.192385
  H       3.198836      4.545432      1.188613
18
Coordinates from ORCA-job /burg/berkelbach/users/eav2136/projects/peroxide_dissociation/04_solvated_radical/dmf/dmf_radical_opt E -857.219146391851
  C      -0.078258      6.457586      3.524635
  S       1.461553      6.024037      2.734749
  C       1.133483      4.609917      1.838594
  C      -0.127405      3.985647      1.777633
  C      -0.278092      2.847413      1.031090
  C       0.802656      2.311981      0.305879
  C       2.062192      2.933434      0.379066
  C       2.230692      4.063048      1.129882
  C       0.616661      1.084440     -0.519444
  O       0.391506      0.059073      0.160704
  O       0.705317      1.166004     -1.747930
  H       0.136174      7.357440      4.102205
  H      -0.404584      5.664382      4.197930
  H      -0.846016      6.678325      2.782742
  H      -0.970556      4.395975      2.316668
  H      -1.240980      2.351889      0.988429
  H       2.896601      2.517272     -0.173164
  H       3.199353      4.548104      1.184286
18
Coordinates from ORCA-job /burg/berkelbach/users/eav2136/projects/peroxide_dissociation/04_solvated_radical/dmf/dmf_radical_opt E -857.219165088533
  C      -0.077839      6.452875      3.528198
  S       1.459391      6.028874      2.728075
  C       1.133023      4.613344      1.833575
  C      -0.128297      3.990761      1.770532
  C      -0.279221      2.851898      1.024963
  C       0.802737      2.313614      0.303944
  C       2.063817      2.932095      0.381082
  C       2.231504      4.063414      1.129444
  C       0.616048      1.083898     -0.516641
  O       0.401595      0.062419      0.172706
  O       0.694377      1.159416     -1.746987
  H       0.134962      7.353836      4.104655
  H      -0.394681      5.657526      4.203472
  H      -0.851971      6.669334      2.791704
  H      -0.972313      4.403045      2.306681
  H      -1.243386      2.359222      0.979738
  H       2.899916      2.512989     -0.166272
  H       3.200633      4.547408      1.185084
18
Coordinates from ORCA-job /burg/berkelbach/users/eav2136/projects/peroxide_dissociation/04_solvated_radical/dmf/dmf_radical_opt E -857.219201192885
  C      -0.078782      6.450393      3.528951
  S       1.458947      6.030485      2.727037
  C       1.134342      4.613523      1.832907
  C      -0.127743      3.993907      1.765756
  C      -0.280037      2.855645      1.019094
  C       0.802493      2.315628      0.300839
  C       2.066460      2.928068      0.386242
  C       2.233840      4.059724      1.134080
  C       0.613824      1.087804     -0.519811
  O       0.446523      0.065235      0.182345
  O       0.646221      1.159843     -1.752395
  H       0.130230      7.356282      4.099053
  H      -0.388589      5.657700      4.210499
  H      -0.856704      6.657841      2.793869
  H      -0.972815      4.408188      2.298606
  H      -1.246783      2.368413      0.969867
  H       2.904903      2.505894     -0.155112
  H       3.203964      4.541395      1.192125
18
Coordinates from ORCA-job /burg/berkelbach/users/eav2136/projects/peroxide_dissociation/04_solvated_radical/dmf/dmf_radical_opt E -857.219297686957
  C      -0.081776      6.450512      3.525783
  S       1.459715      6.028651      2.730985
  C       1.137226      4.609956      1.836277
  C      -0.126830      3.997198      1.759079
  C      -0.282211      2.861077      1.008767
  C       0.801046      2.319331      0.293484
  C       2.071611      2.916205      0.400787
  C       2.238913      4.046753      1.149885
  C       0.607656      1.099409     -0.534664
  O       0.597938      0.075202      0.189155
  O       0.494907      1.165783     -1.761120
  H       0.123276      7.361999      4.088446
  H      -0.390035      5.663334      4.214224
  H      -0.859383      6.650129      2.788282
  H      -0.974101      4.415045      2.285561
  H      -1.254744      2.386171      0.951017
  H       2.915242      2.487557     -0.127306
  H       3.211846      4.521655      1.215312
18
Coordinates from ORCA-job /burg/berkelbach/users/eav2136/projects/peroxide_dissociation/04_solvated_radical/dmf/dmf_radical_opt E -857.219368980460
  C      -0.083736      6.448610      3.524575
  S       1.461551      6.026000      2.736590
  C       1.138877      4.608909      1.836588
  C      -0.127552      4.003881      1.748602
  C      -0.285828      2.869452      0.995469
  C       0.798638      2.324590      0.284965
  C       2.074562      2.906435      0.412190
  C       2.241975      4.036770      1.161385
  C       0.602311      1.108242     -0.546518
  O       0.754204      0.100224      0.190745
  O       0.348672      1.147681     -1.749213
  H       0.121742      7.355488      4.094557
  H      -0.399181      5.658727      4.206550
  H      -0.856617      6.657392      2.784726
  H      -0.977021      4.425192      2.268783
  H      -1.263429      2.405658      0.930098
  H       2.922796      2.469571     -0.101924
  H       3.218333      4.503147      1.235786
18
Coordinates from ORCA-job /burg/berkelbach/users/eav2136/projects/peroxide_dissociation/04_solvated_radical/dmf/dmf_radical_opt E -857.219440901750
  C      -0.084841      6.454108      3.519256
  S       1.465006      6.018333      2.747926
  C       1.140310      4.603563      1.844998
  C      -0.125475      3.995555      1.759659
  C      -0.283138      2.863535      1.002971
  C       0.800354      2.323550      0.286843
  C       2.073947      2.909474      0.408986
  C       2.241762      4.037630      1.161818
  C       0.603889      1.110105     -0.554149
  O       0.735674      0.100044      0.186307
  O       0.358787      1.153729     -1.755779
  H       0.122262      7.359758      4.090646
  H      -0.414756      5.667675      4.198391
  H      -0.847833      6.668750      2.770797
  H      -0.974400      4.413167      2.283883
  H      -1.258528      2.394975      0.939057
  H       2.919659      2.476760     -0.112788
  H       3.217618      4.505257      1.235132
18
Coordinates from ORCA-job /burg/berkelbach/users/eav2136/projects/peroxide_dissociation/04_solvated_radical/dmf/dmf_radical_opt E -857.219464041503
  C      -0.085000      6.457857      3.515760
  S       1.467510      6.013788      2.754710
  C       1.140651      4.600785      1.849958
  C      -0.124982      3.990855      1.767039
  C      -0.281901      2.859481      1.009728
  C       0.800452      2.322815      0.289098
  C       2.072793      2.910661      0.407937
  C       2.241340      4.037736      1.162793
  C       0.603298      1.111312     -0.560345
  O       0.723734      0.099777      0.181011
  O       0.370731      1.159126     -1.761594
  H       0.122772      7.363404      4.087125
  H      -0.423929      5.674193      4.193689
  H      -0.841779      6.674770      2.761620
  H      -0.973149      4.407225      2.293574
  H      -1.254715      2.385294      0.947385
  H       2.915692      2.480304     -0.120469
  H       3.216778      4.506586      1.234934
18
Coordinates from ORCA-job /burg/berkelbach/users/eav2136/projects/peroxide_dissociation/04_solvated_radical/dmf/dmf_radical_opt E -857.219466600269
  C      -0.084947      6.458466      3.515389
  S       1.467581      6.014001      2.754367
  C       1.140489      4.600464      1.850177
  C      -0.125242      3.990642      1.767485
  C      -0.282044      2.858830      1.010910
  C       0.800027      2.322847      0.289368
  C       2.072756      2.909726      0.408919
  C       2.241329      4.036930      1.163601
  C       0.602841      1.112443     -0.562521
  O       0.727736      0.101641      0.179585
  O       0.368285      1.159916     -1.762899
  H       0.122827      7.364100      4.086608
  H      -0.424419      5.675085      4.193371
  H      -0.841514      6.675303      2.761015
  H      -0.973159      4.407648      2.293876
  H      -1.254185      2.383219      0.948705
  H       2.915242      2.478770     -0.119695
  H       3.216692      4.505939      1.235692
