36
Coordinates from ORCA-job /burg/berkelbach/users/eav2136/projects/peroxide_dissociation/04_solvated_radical/nmf_peroxide/nmf_peroxide_opt E -1714.459924190206
  C      -0.074257      6.450078      3.546369
  S       1.489796      6.080482      2.755983
  C       1.149367      4.636622      1.833692
  C      -0.091366      4.003053      1.793384
  C      -0.258269      2.842695      1.059363
  C       0.800510      2.302714      0.339239
  C       2.028757      2.960408      0.342019
  C       2.207648      4.103303      1.091211
  C       0.662544      1.099418     -0.506902
  O       0.000000      0.000000      0.000000
  O       1.067139      0.987171     -1.623577
  O       0.000000      0.000000      1.415273
  C      -1.273888      0.000000      1.915906
  C      -1.222115      0.066428      3.388315
  O      -2.257429     -0.025858      1.238757
  C      -2.415439     -0.122896      4.085953
  C      -2.441959     -0.034377      5.458877
  C      -1.272751      0.254962      6.172985
  C      -0.081778      0.450607      5.475180
  C      -0.058904      0.354404      4.095446
  S      -1.426667      0.349861      7.907885
  C       0.243161      0.684954      8.461945
  H       0.104163      7.346077      4.140874
  H      -0.388823      5.643873      4.210020
  H      -0.853239      6.664434      2.813856
  H      -0.937000      4.405134      2.334216
  H      -1.235074      2.374970      1.027490
  H       2.845447      2.558826     -0.245767
  H       3.172953      4.596710      1.102483
  H      -3.317691     -0.339000      3.527072
  H      -3.371885     -0.188084      5.994647
  H       0.834798      0.682521      5.999887
  H       0.870469      0.518836      3.566025
  H       0.184541      0.737294      9.549091
  H       0.608645      1.640295      8.083742
  H       0.925075     -0.119495      8.184590
36
Coordinates from ORCA-job /burg/berkelbach/users/eav2136/projects/peroxide_dissociation/04_solvated_radical/nmf_peroxide/nmf_peroxide_opt E -1714.460223215831
  C       0.299738      6.526593      3.630911
  S       1.775038      6.109192      2.705261
  C       1.303677      4.697195      1.793041
  C       0.030450      4.129301      1.833283
  C      -0.245692      2.988920      1.102540
  C       0.734167      2.406387      0.304973
  C       1.994880      2.998289      0.230104
  C       2.282872      4.119742      0.976208
  C       0.482397      1.228136     -0.542242
  O      -0.158082      0.127914     -0.009734
  O       0.815101      1.109365     -1.686867
  O      -0.114898      0.119511      1.403182
  C      -1.331550     -0.213080      1.933398
  C      -1.274813     -0.127084      3.400200
  O      -2.267326     -0.560435      1.270150
  C      -2.337566     -0.675240      4.121867
  C      -2.359880     -0.596187      5.494592
  C      -1.321064      0.043790      6.184648
  C      -0.263874      0.599036      5.463105
  C      -0.241539      0.510208      4.083783
  S      -1.455038      0.091654      7.922682
  C       0.029828      0.945748      8.445179
  H       0.562769      7.407705      4.218178
  H       0.012894      5.723714      4.311027
  H      -0.529899      6.780441      2.970253
  H      -0.755239      4.568371      2.433517
  H      -1.247434      2.577705      1.130068
  H       2.753276      2.558159     -0.407464
  H       3.273861      4.558350      0.929312
  H      -3.141485     -1.165331      3.585569
  H      -3.185746     -1.030412      6.047754
  H       0.546671      1.106539      5.968874
  H       0.580977      0.955070      3.538120
  H      -0.018311      0.975229      9.534845
  H       0.059418      1.968472      8.067676
  H       0.927900      0.403453      8.147536
36
Coordinates from ORCA-job /burg/berkelbach/users/eav2136/projects/peroxide_dissociation/04_solvated_radical/nmf_peroxide/nmf_peroxide_opt E -1714.460236936186
  C       0.444371      6.280104      3.901436
  S       1.813230      6.019505      2.776260
  C       1.324888      4.629976      1.840006
  C       0.103645      3.974021      2.001963
  C      -0.190754      2.858809      1.241283
  C       0.715062      2.394266      0.291750
  C       1.922405      3.069200      0.103752
  C       2.231338      4.165171      0.878181
  C       0.435178      1.247943     -0.580086
  O      -0.169874      0.125484     -0.060976
  O       0.627942      1.199767     -1.765790
  O      -0.098884      0.101263      1.348643
  C      -1.285094     -0.314936      1.885102
  C      -1.253725     -0.162651      3.342626
  O      -2.201026     -0.712812      1.215940
  C      -2.280059     -0.758742      4.081422
  C      -2.316962     -0.625973      5.449223
  C      -1.332059      0.118366      6.115618
  C      -0.312778      0.721582      5.376859
  C      -0.274232      0.578108      4.003417
  S      -1.476522      0.231433      7.848898
  C      -0.104877      1.276853      8.330908
  H       0.726505      7.140750      4.511114
  H       0.295080      5.420301      4.555718
  H      -0.475582      6.516688      3.365895
  H      -0.624621      4.322610      2.722225
  H      -1.149352      2.371076      1.373743
  H       2.627557      2.711651     -0.638583
  H       3.183490      4.667439      0.742583
  H      -3.042723     -1.331810      3.567288
  H      -3.113496     -1.097955      6.014923
  H       0.454331      1.308780      5.864297
  H       0.518467      1.061426      3.445748
  H      -0.164267      1.353722      9.418430
  H      -0.192466      2.276332      7.903485
  H       0.852343      0.828674      8.062229
36
Coordinates from ORCA-job /burg/berkelbach/users/eav2136/projects/peroxide_dissociation/04_solvated_radical/nmf_peroxide/nmf_peroxide_opt E -1714.460848822654
  C       0.262363      6.461818      3.671177
  S       1.707292      6.130609      2.666205
  C       1.276469      4.690783      1.779100
  C       0.043179      4.047963      1.892674
  C      -0.207168      2.894624      1.173902
  C       0.756705      2.377145      0.313316
  C       1.977063      3.039186      0.170641
  C       2.241350      4.173433      0.905973
  C       0.522606      1.196609     -0.526434
  O      -0.095831      0.086584      0.000808
  O       0.820961      1.086960     -1.685322
  O      -0.056029      0.082481      1.412972
  C      -1.292674     -0.193591      1.924979
  C      -1.261328     -0.093441      3.387268
  O      -2.239792     -0.463313      1.236557
  C      -2.366097     -0.573384      4.096396
  C      -2.404252     -0.480547      5.467724
  C      -1.338801      0.103320      6.167957
  C      -0.237523      0.586854      5.459674
  C      -0.200407      0.485690      4.082085
  S      -1.490241      0.175949      7.902622
  C       0.032022      0.952615      8.436930
  H       0.508960      7.351633      4.253006
  H       0.055698      5.639735      4.357508
  H      -0.613081      6.676202      3.057322
  H      -0.729502      4.436995      2.541956
  H      -1.175352      2.417756      1.266965
  H       2.725557      2.644459     -0.506967
  H       3.202346      4.666557      0.806013
  H      -3.191279     -1.022383      3.556671
  H      -3.264062     -0.859746      6.009502
  H       0.595027      1.047980      5.973850
  H       0.658027      0.874271      3.549043
  H      -0.039042      1.015493      9.524135
  H       0.131466      1.960571      8.032742
  H       0.901849      0.348550      8.176581
36
Coordinates from ORCA-job /burg/berkelbach/users/eav2136/projects/peroxide_dissociation/04_solvated_radical/nmf_peroxide/nmf_peroxide_opt E -1714.460849746821
  C       0.186446      6.426798      3.674271
  S       1.645264      6.118543      2.682185
  C       1.244515      4.673584      1.789602
  C       0.018857      4.014550      1.889193
  C      -0.207896      2.858000      1.167973
  C       0.772425      2.352229      0.318804
  C       1.984177      3.032154      0.188268
  C       2.225220      4.169839      0.926643
  C       0.562946      1.167891     -0.521627
  O      -0.061232      0.056954     -0.004657
  O       0.889942      1.054910     -1.672678
  O      -0.035726      0.048505      1.408993
  C      -1.293997     -0.122773      1.916871
  C      -1.255534     -0.047828      3.380180
  O      -2.254553     -0.335270      1.227610
  C      -2.391360     -0.455184      4.084910
  C      -2.423526     -0.373707      5.457389
  C      -1.320395      0.126918      6.162960
  C      -0.187232      0.537451      5.459060
  C      -0.156718      0.447152      4.080466
  S      -1.468528      0.198379      7.897802
  C       0.071669      0.938248      8.432493
  H       0.408908      7.328224      4.247429
  H      -0.005234      5.607911      4.368689
  H      -0.689833      6.614017      3.052788
  H      -0.766378      4.393738      2.528936
  H      -1.171253      2.369864      1.249377
  H       2.745149      2.648771     -0.481521
  H       3.180425      4.675724      0.836909
  H      -3.247194     -0.837595      3.541859
  H      -3.308958     -0.695270      5.994942
  H       0.675360      0.934008      5.977174
  H       0.726783      0.780937      3.551387
  H       0.009131      0.985503      9.520810
  H       0.186267      1.950447      8.043476
  H       0.928538      0.322794      8.156562
36
Coordinates from ORCA-job /burg/berkelbach/users/eav2136/projects/peroxide_dissociation/04_solvated_radical/nmf_peroxide/nmf_peroxide_opt E -1714.460903933204
  C       0.115571      6.390883      3.693351
  S       1.598533      6.085645      2.736781
  C       1.217476      4.648183      1.823993
  C      -0.010912      3.990334      1.890580
  C      -0.221769      2.838396      1.157648
  C       0.778152      2.334426      0.330005
  C       1.991761      3.016152      0.229404
  C       2.216718      4.149331      0.979866
  C       0.589003      1.152610     -0.518389
  O      -0.042681      0.037362     -0.019520
  O       0.935044      1.047408     -1.664981
  O      -0.023859      0.006094      1.394749
  C      -1.287568     -0.125618      1.903987
  C      -1.248279     -0.033912      3.365855
  O      -2.258318     -0.284003      1.214799
  C      -2.403408     -0.374573      4.073999
  C      -2.434310     -0.269522      5.445029
  C      -1.310066      0.189171      6.145413
  C      -0.157247      0.533477      5.437834
  C      -0.128880      0.420293      4.060886
  S      -1.457708      0.296711      7.878354
  C       0.129042      0.933839      8.408849
  H       0.325613      7.288225      4.277328
  H      -0.095261      5.568351      4.377836
  H      -0.744241      6.583983      3.051096
  H      -0.811003      4.367523      2.512796
  H      -1.189635      2.355652      1.209536
  H       2.768005      2.636523     -0.424670
  H       3.174209      4.654593      0.914831
  H      -3.276455     -0.723257      3.535677
  H      -3.335726     -0.539016      5.984629
  H       0.722265      0.897246      5.951435
  H       0.770023      0.705043      3.528983
  H       0.059086      1.020286      9.494266
  H       0.323804      1.921583      7.990077
  H       0.939501      0.246999      8.163222
36
Coordinates from ORCA-job /burg/berkelbach/users/eav2136/projects/peroxide_dissociation/04_solvated_radical/nmf_peroxide/nmf_peroxide_opt E -1714.460906247630
  C       0.173966      6.344226      3.756485
  S       1.631299      6.062402      2.754425
  C       1.230912      4.639908      1.826673
  C       0.001140      3.985131      1.903096
  C      -0.223652      2.842207      1.160390
  C       0.763364      2.343929      0.314094
  C       1.978068      3.022464      0.204472
  C       2.216433      4.147695      0.962532
  C       0.562800      1.166159     -0.536471
  O      -0.056069      0.046639     -0.030138
  O       0.888821      1.066883     -1.689508
  O      -0.028092      0.022735      1.383414
  C      -1.282865     -0.162514      1.897706
  C      -1.246280     -0.053351      3.358299
  O      -2.246204     -0.372096      1.211569
  C      -2.382654     -0.444141      4.071062
  C      -2.419564     -0.323172      5.440485
  C      -1.320134      0.200610      6.135033
  C      -0.185177      0.592661      5.423032
  C      -0.150666      0.464245      4.047613
  S      -1.474730      0.324231      7.866329
  C       0.095074      1.003962      8.394299
  H       0.403507      7.221383      4.363611
  H      -0.025164      5.501176      4.419205
  H      -0.699998      6.562431      3.142034
  H      -0.788622      4.356979      2.541670
  H      -1.192927      2.362563      1.220201
  H       2.744983      2.646212     -0.462722
  H       3.174732      4.650500      0.889425
  H      -3.236945     -0.843468      3.537613
  H      -3.306667     -0.631329      5.983280
  H       0.675113      1.006053      5.931950
  H       0.733088      0.787230      3.512200
  H       0.018477      1.104107      9.478254
  H       0.269404      1.989795      7.962216
  H       0.921706      0.331973      8.161703
36
Coordinates from ORCA-job /burg/berkelbach/users/eav2136/projects/peroxide_dissociation/04_solvated_radical/nmf_peroxide/nmf_peroxide_opt E -1714.460911188734
  C       0.136659      6.339832      3.745668
  S       1.607136      6.055948      2.763597
  C       1.218372      4.632281      1.832812
  C      -0.011140      3.975694      1.897857
  C      -0.227253      2.832309      1.153455
  C       0.768147      2.335143      0.316416
  C       1.982590      3.015767      0.217581
  C       2.212155      4.141861      0.977192
  C       0.577449      1.155416     -0.533502
  O      -0.043959      0.036050     -0.029616
  O       0.911664      1.054946     -1.684054
  O      -0.019788      0.011697      1.383934
  C      -1.280223     -0.138395      1.896261
  C      -1.242406     -0.034547      3.357093
  O      -2.247567     -0.323282      1.208740
  C      -2.390157     -0.395047      4.067486
  C      -2.425540     -0.276371      5.437178
  C      -1.312831      0.214618      6.134502
  C      -0.166157      0.575858      5.424860
  C      -0.133585      0.450320      4.049135
  S      -1.466563      0.339158      7.865778
  C       0.116998      0.983644      8.396727
  H       0.358802      7.217512      4.354799
  H      -0.071744      5.497660      4.406627
  H      -0.728970      6.558000      3.119504
  H      -0.807474      4.346596      2.528760
  H      -1.196776      2.351952      1.203990
  H       2.756225      2.640742     -0.442520
  H       3.170079      4.646489      0.911964
  H      -3.254625     -0.769428      3.532335
  H      -3.321677     -0.561295      5.977820
  H       0.705082      0.962941      5.935837
  H       0.759818      0.749269      3.515810
  H       0.045077      1.072936      9.481950
  H       0.308253      1.970976      7.975426
  H       0.930411      0.299167      8.154129
36
Coordinates from ORCA-job /burg/berkelbach/users/eav2136/projects/peroxide_dissociation/04_solvated_radical/nmf_peroxide/nmf_peroxide_opt E -1714.460887528939
  C       0.137770      6.311683      3.775413
  S       1.606120      6.036766      2.787641
  C       1.216193      4.620029      1.846845
  C      -0.016035      3.967593      1.903177
  C      -0.233476      2.829521      1.151163
  C       0.763111      2.333548      0.314944
  C       1.979996      3.010804      0.224079
  C       2.210767      4.131805      0.990979
  C       0.571976      1.157572     -0.540172
  O      -0.047005      0.035233     -0.039231
  O       0.908637      1.060411     -1.690163
  O      -0.020405      0.005691      1.374093
  C      -1.280347     -0.141982      1.888707
  C      -1.239886     -0.036389      3.349210
  O      -2.249694     -0.321999      1.202743
  C      -2.387912     -0.391339      4.061925
  C      -2.420964     -0.269890      5.431463
  C      -1.305785      0.219025      6.126252
  C      -0.158789      0.574644      5.414236
  C      -0.128432      0.445960      4.038768
  S      -1.457737      0.350634      7.857078
  C       0.116049      1.024398      8.380622
  H       0.356330      7.191837      4.382239
  H      -0.061562      5.469088      4.438587
  H      -0.732221      6.522633      3.152785
  H      -0.813501      4.337657      2.533094
  H      -1.205158      2.352837      1.195124
  H       2.754622      2.637192     -0.435646
  H       3.170414      4.633823      0.931270
  H      -3.254370     -0.764234      3.529011
  H      -3.317311     -0.551038      5.973704
  H       0.714479      0.959837      5.923154
  H       0.765297      0.740722      3.503639
  H       0.047881      1.111364      9.466251
  H       0.286607      2.015546      7.959415
  H       0.940818      0.355437      8.133128
36
Coordinates from ORCA-job /burg/berkelbach/users/eav2136/projects/peroxide_dissociation/04_solvated_radical/nmf_peroxide/nmf_peroxide_opt E -1714.460901154753
  C       0.135586      6.320734      3.764910
  S       1.607366      6.039865      2.783947
  C       1.217830      4.621995      1.844671
  C      -0.013879      3.968642      1.902613
  C      -0.231107      2.829818      1.151689
  C       0.765102      2.333983      0.314976
  C       1.981476      3.011916      0.222635
  C       2.212090      4.133683      0.988497
  C       0.574126      1.156862     -0.538572
  O      -0.046119      0.035772     -0.036225
  O       0.907408      1.059270     -1.689492
  O      -0.020635      0.008551      1.377112
  C      -1.280792     -0.139879      1.891053
  C      -1.241174     -0.034311      3.351530
  O      -2.249066     -0.324423      1.204718
  C      -2.388208     -0.393206      4.063909
  C      -2.422054     -0.271951      5.433449
  C      -1.308668      0.220569      6.128582
  C      -0.162685      0.580114      5.416904
  C      -0.131500      0.451630      4.041452
  S      -1.461178      0.350968      7.859412
  C       0.118656      1.008402      8.385485
  H       0.355269      7.199444      4.373425
  H      -0.070684      5.478535      4.426468
  H      -0.730493      6.536142      3.138377
  H      -0.811051      4.338479      2.533022
  H      -1.202312      2.352251      1.197097
  H       2.755883      2.638270     -0.437331
  H       3.171368      4.636261      0.927572
  H      -3.253324     -0.768917      3.530801
  H      -3.317650     -0.556112      5.975363
  H       0.709149      0.968182      5.926095
  H       0.761406      0.749420      3.506617
  H       0.046482      1.104384      9.470096
  H       0.303986      1.994055      7.957617
  H       0.935872      0.327021      8.147055
36
Coordinates from ORCA-job /burg/berkelbach/users/eav2136/projects/peroxide_dissociation/04_solvated_radical/nmf_peroxide/nmf_peroxide_opt E -1714.460901471342
  C       0.137363      6.320498      3.766412
  S       1.610747      6.035979      2.788927
  C       1.219475      4.619937      1.847557
  C      -0.012699      3.967349      1.905394
  C      -0.231198      2.829670      1.153092
  C       0.764160      2.334241      0.315154
  C       1.981112      3.011118      0.223273
  C       2.212999      4.131721      0.990510
  C       0.571648      1.158249     -0.539644
  O      -0.047816      0.036623     -0.037317
  O       0.903640      1.061457     -1.690948
  O      -0.021653      0.008977      1.375918
  C      -1.281354     -0.142073      1.890223
  C      -1.241528     -0.035693      3.350598
  O      -2.249450     -0.328225      1.204027
  C      -2.387143     -0.397717      4.063717
  C      -2.420672     -0.275940      5.433227
  C      -1.308473      0.220379      6.127583
  C      -0.163839      0.582796      5.415183
  C      -0.132935      0.453774      4.039794
  S      -1.460191      0.350647      7.858459
  C       0.117718      1.013810      8.383143
  H       0.360232      7.194713      4.380232
  H      -0.076151      5.476085      4.422846
  H      -0.725307      6.544393      3.138174
  H      -0.809179      4.336715      2.536955
  H      -1.202623      2.352514      1.198696
  H       2.754952      2.637697     -0.437501
  H       3.172723      4.633474      0.929766
  H      -3.251449     -0.776275      3.531303
  H      -3.315178     -0.562580      5.975639
  H       0.707207      0.973381      5.923788
  H       0.758900      0.753785      3.504429
  H       0.046684      1.108114      9.467982
  H       0.298410      2.000769      7.956295
  H       0.937346      0.336057      8.142648
36
Coordinates from ORCA-job /burg/berkelbach/users/eav2136/projects/peroxide_dissociation/04_solvated_radical/nmf_peroxide/nmf_peroxide_opt E -1714.460900390642
  C       0.137433      6.316342      3.770111
  S       1.608931      6.035825      2.788645
  C       1.218387      4.619771      1.846939
  C      -0.013949      3.967320      1.903636
  C      -0.231793      2.829487      1.151363
  C       0.764376      2.333759      0.314581
  C       1.981512      3.010384      0.223870
  C       2.212723      4.131171      0.991095
  C       0.572424      1.157526     -0.540071
  O      -0.047142      0.035984     -0.037468
  O       0.904044      1.060580     -1.691412
  O      -0.021371      0.008740      1.375736
  C      -1.281310     -0.141299      1.889826
  C      -1.241596     -0.034539      3.350151
  O      -2.249348     -0.327138      1.203454
  C      -2.387069     -0.396685      4.063442
  C      -2.420557     -0.274533      5.432932
  C      -1.308487      0.222346      6.127092
  C      -0.163985      0.584830      5.414513
  C      -0.133105      0.455410      4.039173
  S      -1.459972      0.352891      7.857941
  C       0.118326      1.015386      8.382313
  H       0.358894      7.192338      4.381896
  H      -0.070926      5.472179      4.428520
  H      -0.727978      6.536021      3.144150
  H      -0.811061      4.336853      2.534299
  H      -1.203275      2.352344      1.196172
  H       2.755997      2.636790     -0.436052
  H       3.172580      4.632764      0.931127
  H      -3.251347     -0.775649      3.531269
  H      -3.314989     -0.561290      5.975403
  H       0.707018      0.975714      5.922948
  H       0.758645      0.755454      3.503696
  H       0.047284      1.110364      9.467091
  H       0.299625      2.001994      7.954902
  H       0.937541      0.336987      8.142244
