36
Coordinates from ORCA-job /burg/berkelbach/users/eav2136/projects/peroxide_dissociation/05_range_separated_functional/wb97x-v-peroxide-nmf/wb97x-v-peroxide-nmf_opt E -1715.355028710199
  C      -0.074257      6.450078      3.546369
  S       1.489796      6.080482      2.755983
  C       1.149367      4.636622      1.833692
  C      -0.091366      4.003053      1.793384
  C      -0.258269      2.842695      1.059363
  C       0.800510      2.302714      0.339239
  C       2.028757      2.960408      0.342019
  C       2.207648      4.103303      1.091211
  C       0.662544      1.099418     -0.506902
  O       0.000000      0.000000      0.000000
  O       1.067139      0.987171     -1.623577
  O       0.000000      0.000000      1.415273
  C      -1.273888      0.000000      1.915906
  C      -1.222115      0.066428      3.388315
  O      -2.257429     -0.025858      1.238757
  C      -2.415439     -0.122896      4.085953
  C      -2.441959     -0.034377      5.458877
  C      -1.272751      0.254962      6.172985
  C      -0.081778      0.450607      5.475180
  C      -0.058904      0.354404      4.095446
  S      -1.426667      0.349861      7.907885
  C       0.243161      0.684954      8.461945
  H       0.104163      7.346077      4.140874
  H      -0.388823      5.643873      4.210020
  H      -0.853239      6.664434      2.813856
  H      -0.937000      4.405134      2.334216
  H      -1.235074      2.374970      1.027490
  H       2.845447      2.558826     -0.245767
  H       3.172953      4.596710      1.102483
  H      -3.317691     -0.339000      3.527072
  H      -3.371885     -0.188084      5.994647
  H       0.834798      0.682521      5.999887
  H       0.870469      0.518836      3.566025
  H       0.184541      0.737294      9.549091
  H       0.608645      1.640295      8.083742
  H       0.925075     -0.119495      8.184590
36
Coordinates from ORCA-job /burg/berkelbach/users/eav2136/projects/peroxide_dissociation/05_range_separated_functional/wb97x-v-peroxide-nmf/wb97x-v-peroxide-nmf_opt E -1715.355485034248
  C       0.305737      6.474177      3.700554
  S       1.777235      6.071952      2.756597
  C       1.298928      4.672790      1.817363
  C       0.021459      4.110011      1.844593
  C      -0.258836      2.980349      1.092305
  C       0.723133      2.403026      0.291279
  C       1.988229      2.990053      0.229112
  C       2.278811      4.102403      0.993851
  C       0.470047      1.225959     -0.571384
  O      -0.155079      0.109934     -0.041554
  O       0.794731      1.123182     -1.721296
  O      -0.101033      0.096629      1.371105
  C      -1.318439     -0.236775      1.909266
  C      -1.264284     -0.133396      3.383820
  O      -2.258726     -0.579261      1.247535
  C      -2.329362     -0.673489      4.111070
  C      -2.354330     -0.576202      5.485896
  C      -1.317359      0.075528      6.170637
  C      -0.258697      0.623414      5.443163
  C      -0.232644      0.515558      4.061470
  S      -1.457724      0.147265      7.913496
  C       0.025091      1.013262      8.432256
  H       0.573581      7.343177      4.305622
  H       0.019849      5.657365      4.366284
  H      -0.528192      6.744108      3.049983
  H      -0.765612      4.543499      2.450205
  H      -1.264597      2.572517      1.110256
  H       2.748390      2.554252     -0.412623
  H       3.273588      4.537897      0.956916
  H      -3.133295     -1.172192      3.579053
  H      -3.182172     -1.004812      6.044011
  H       0.551334      1.140101      5.943988
  H       0.592437      0.955014      3.511016
  H      -0.027950      1.058821      9.522334
  H       0.055040      2.031676      8.040255
  H       0.927186      0.468627      8.147097
36
Coordinates from ORCA-job /burg/berkelbach/users/eav2136/projects/peroxide_dissociation/05_range_separated_functional/wb97x-v-peroxide-nmf/wb97x-v-peroxide-nmf_opt E -1715.355164309809
  C       0.378455      6.188418      3.987468
  S       1.766534      5.956307      2.871226
  C       1.291946      4.579632      1.889644
  C       0.058406      3.931374      1.999655
  C      -0.222386      2.829357      1.204335
  C       0.714022      2.371185      0.279490
  C       1.935351      3.036684      0.143440
  C       2.227083      4.122111      0.949032
  C       0.455167      1.220476     -0.617028
  O      -0.138724      0.078534     -0.107175
  O       0.643757      1.196615     -1.805397
  O      -0.064834      0.056453      1.302537
  C      -1.276757     -0.295369      1.844831
  C      -1.242652     -0.129717      3.315768
  O      -2.211403     -0.652252      1.176120
  C      -2.297558     -0.672270      4.059386
  C      -2.332211     -0.517919      5.430650
  C      -1.317863      0.195410      6.091137
  C      -0.269720      0.743610      5.346889
  C      -0.232536      0.578138      3.969481
  S      -1.466901      0.341930      7.832770
  C      -0.049134      1.336613      8.307996
  H       0.654248      7.029463      4.629582
  H       0.215018      5.308226      4.613732
  H      -0.534772      6.446428      3.446971
  H      -0.692282      4.272728      2.704137
  H      -1.191018      2.344103      1.297554
  H       2.664172      2.683140     -0.581917
  H       3.189584      4.619776      0.854129
  H      -3.085288     -1.219864      3.549582
  H      -3.151942     -0.947862      6.001796
  H       0.523292      1.305101      5.828791
  H       0.585635      1.018622      3.406765
  H      -0.110091      1.434936      9.395409
  H      -0.089230      2.333621      7.863749
  H       0.891112      0.842681      8.052992
36
Coordinates from ORCA-job /burg/berkelbach/users/eav2136/projects/peroxide_dissociation/05_range_separated_functional/wb97x-v-peroxide-nmf/wb97x-v-peroxide-nmf_opt E -1715.356135875661
  C       0.165084      6.403795      3.713055
  S       1.646946      6.078443      2.752100
  C       1.236112      4.646393      1.822809
  C      -0.015928      4.027673      1.858590
  C      -0.247993      2.882798      1.110728
  C       0.756567      2.353691      0.304194
  C       1.998766      2.988901      0.239402
  C       2.241423      4.116081      1.002125
  C       0.546196      1.166236     -0.554437
  O      -0.071754      0.043912     -0.033850
  O       0.847192      1.074611     -1.714868
  O      -0.031929      0.045952      1.378396
  C      -1.289065     -0.148073      1.894732
  C      -1.251250     -0.046676      3.369675
  O      -2.251127     -0.364195      1.206759
  C      -2.379359     -0.466554      4.083068
  C      -2.407157     -0.366625      5.459068
  C      -1.309108      0.164703      6.154268
  C      -0.185037      0.587091      5.440764
  C      -0.157598      0.479092      4.057923
  S      -1.452170      0.251590      7.899961
  C       0.109681      0.965077      8.424648
  H       0.399196      7.276533      4.327647
  H      -0.078184      5.566775      4.371080
  H      -0.685760      6.645406      3.073012
  H      -0.819219      4.425480      2.467787
  H      -1.230777      2.420644      1.143852
  H       2.779749      2.582111     -0.396742
  H       3.218040      4.591529      0.964048
  H      -3.230608     -0.874678      3.547055
  H      -3.285210     -0.699217      6.006400
  H       0.675554      1.004502      5.950526
  H       0.722011      0.817765      3.519997
  H       0.049777      1.032685      9.513685
  H       0.250430      1.968763      8.018506
  H       0.952989      0.324205      8.159567
36
Coordinates from ORCA-job /burg/berkelbach/users/eav2136/projects/peroxide_dissociation/05_range_separated_functional/wb97x-v-peroxide-nmf/wb97x-v-peroxide-nmf_opt E -1715.355937925156
  C       0.020633      6.244664      3.817559
  S       1.531139      5.970669      2.885834
  C       1.164036      4.560805      1.905387
  C      -0.086804      3.941281      1.874449
  C      -0.284814      2.814149      1.091800
  C       0.753980      2.304447      0.317858
  C       1.995232      2.943034      0.316981
  C       2.203047      4.052619      1.114892
  C       0.578100      1.133465     -0.569084
  O      -0.020032     -0.010464     -0.075102
  O       0.947701      1.051129     -1.709452
  O       0.004531     -0.028986      1.338655
  C      -1.268150     -0.089358      1.852519
  C      -1.222304      0.021728      3.324639
  O      -2.247140     -0.195301      1.164451
  C      -2.392449     -0.253167      4.038724
  C      -2.412789     -0.124994      5.412198
  C      -1.264071      0.290539      6.102344
  C      -0.096501      0.565501      5.388027
  C      -0.077782      0.430267      4.007852
  S      -1.404420      0.437924      7.844316
  C       0.207848      1.039585      8.354982
  H       0.219984      7.112238      4.450457
  H      -0.216140      5.391692      4.456633
  H      -0.821352      6.476039      3.162623
  H      -0.915388      4.324180      2.457812
  H      -1.267173      2.352094      1.071220
  H       2.802631      2.552904     -0.294911
  H       3.178900      4.529617      1.128611
  H      -3.284275     -0.568047      3.506930
  H      -3.325369     -0.342316      5.959884
  H       0.803951      0.892375      5.893604
  H       0.834907      0.660021      3.468686
  H       0.152455      1.138270      9.441388
  H       0.425756      2.018798      7.924965
  H       0.998602      0.329016      8.107797
36
Coordinates from ORCA-job /burg/berkelbach/users/eav2136/projects/peroxide_dissociation/05_range_separated_functional/wb97x-v-peroxide-nmf/wb97x-v-peroxide-nmf_opt E -1715.356172487153
  C       0.091152      6.262337      3.830180
  S       1.591721      5.971512      2.887666
  C       1.198605      4.571668      1.902685
  C      -0.058904      3.965455      1.882166
  C      -0.276832      2.844310      1.096242
  C       0.749111      2.326032      0.310746
  C       1.995520      2.953916      0.296986
  C       2.223048      4.057881      1.097311
  C       0.555666      1.156519     -0.574932
  O      -0.054420      0.018149     -0.080059
  O       0.881281      1.086564     -1.729321
  O      -0.019655     -0.012718      1.333294
  C      -1.284497     -0.132539      1.857500
  C      -1.233383     -0.023162      3.329484
  O      -2.261131     -0.295345      1.177557
  C      -2.380097     -0.366929      4.051431
  C      -2.399928     -0.236611      5.424703
  C      -1.274790      0.250357      6.106660
  C      -0.129996      0.592793      5.384696
  C      -0.111084      0.454496      4.004798
  S      -1.415293      0.398510      7.848645
  C       0.164365      1.088449      8.349190
  H       0.312266      7.113730      4.477606
  H      -0.162155      5.403379      4.454763
  H      -0.747898      6.524308      3.183127
  H      -0.877270      4.353937      2.476155
  H      -1.264858      2.394655      1.081928
  H       2.792285      2.558825     -0.325557
  H       3.203655      4.525202      1.101901
  H      -3.255172     -0.735115      3.526042
  H      -3.294818     -0.506528      5.978170
  H       0.751775      0.975779      5.883755
  H       0.782261      0.739194      3.459585
  H       0.100853      1.208268      9.433022
  H       0.335715      2.067322      7.897795
  H       0.989379      0.411821      8.119609
36
Coordinates from ORCA-job /burg/berkelbach/users/eav2136/projects/peroxide_dissociation/05_range_separated_functional/wb97x-v-peroxide-nmf/wb97x-v-peroxide-nmf_opt E -1715.356180081731
  C       0.081198      6.227054      3.856623
  S       1.578226      5.953872      2.902829
  C       1.190481      4.556865      1.910181
  C      -0.063958      3.943605      1.889879
  C      -0.277258      2.824921      1.098723
  C       0.749890      2.317211      0.307776
  C       1.993434      2.950691      0.295190
  C       2.216101      4.052926      1.099981
  C       0.560372      1.148490     -0.580181
  O      -0.042324      0.006142     -0.084672
  O       0.874819      1.084558     -1.738229
  O      -0.009582     -0.020351      1.328079
  C      -1.277833     -0.118955      1.849873
  C      -1.229462     -0.006117      3.321912
  O      -2.253582     -0.277142      1.167059
  C      -2.378232     -0.345352      4.043134
  C      -2.400180     -0.209304      5.416152
  C      -1.275392      0.279196      6.097971
  C      -0.127813      0.615052      5.376985
  C      -0.106832      0.471458      3.997400
  S      -1.417418      0.433856      7.839854
  C       0.171451      1.101514      8.342061
  H       0.302746      7.070662      4.514387
  H      -0.165734      5.358781      4.471035
  H      -0.762284      6.494865      3.217582
  H      -0.883338      4.323909      2.488091
  H      -1.262828      2.368730      1.085150
  H       2.791684      2.562848     -0.330482
  H       3.194372      4.525680      1.104256
  H      -3.253524     -0.714977      3.518661
  H      -3.296766     -0.476107      5.968823
  H       0.755100      0.995874      5.876162
  H       0.789166      0.750585      3.453293
  H       0.103782      1.234701      9.424298
  H       0.361808      2.072359      7.880604
  H       0.986190      0.408322      8.125088
36
Coordinates from ORCA-job /burg/berkelbach/users/eav2136/projects/peroxide_dissociation/05_range_separated_functional/wb97x-v-peroxide-nmf/wb97x-v-peroxide-nmf_opt E -1715.356141595131
  C       0.090190      6.158497      3.930787
  S       1.584070      5.898547      2.968207
  C       1.189517      4.521195      1.949694
  C      -0.069167      3.916799      1.916258
  C      -0.287563      2.812515      1.106224
  C       0.738277      2.311848      0.309147
  C       1.986110      2.936488      0.310080
  C       2.213515      4.024747      1.133095
  C       0.542550      1.156223     -0.595056
  O      -0.048137      0.003399     -0.108408
  O       0.849037      1.108093     -1.755864
  O      -0.009518     -0.036561      1.303094
  C      -1.276375     -0.138757      1.829315
  C      -1.224894     -0.012933      3.300113
  O      -2.254588     -0.287488      1.147821
  C      -2.368649     -0.353990      4.028511
  C      -2.387433     -0.202716      5.400267
  C      -1.265207      0.304491      6.072697
  C      -0.121871      0.640227      5.344775
  C      -0.103852      0.481134      3.966715
  S      -1.403241      0.480606      7.813269
  C       0.167916      1.202015      8.296732
  H       0.317261      6.986911      4.605969
  H      -0.159050      5.278265      4.527127
  H      -0.753747      6.443872      3.299849
  H      -0.887910      4.292149      2.518671
  H      -1.276324      2.362839      1.082639
  H       2.783756      2.554107     -0.320018
  H       3.194846      4.491296      1.146440
  H      -3.242709     -0.737943      3.512075
  H      -3.280148     -0.471779      5.958330
  H       0.760474      1.031775      5.836860
  H       0.789016      0.760271      3.417260
  H       0.105823      1.339468      9.378900
  H       0.321397      2.176047      7.828064
  H       1.003106      0.534759      8.075892
36
Coordinates from ORCA-job /burg/berkelbach/users/eav2136/projects/peroxide_dissociation/05_range_separated_functional/wb97x-v-peroxide-nmf/wb97x-v-peroxide-nmf_opt E -1715.356165958498
  C       0.070981      6.198253      3.885795
  S       1.579998      5.914856      2.954272
  C       1.189866      4.532090      1.942023
  C      -0.071923      3.935459      1.897454
  C      -0.287436      2.826704      1.093106
  C       0.744623      2.313577      0.312407
  C       1.995743      2.931186      0.323152
  C       2.220321      4.023371      1.141532
  C       0.551366      1.154003     -0.587172
  O      -0.051071      0.007752     -0.099683
  O       0.864093      1.099832     -1.745732
  O      -0.016739     -0.031408      1.312337
  C      -1.284649     -0.121024      1.838355
  C      -1.229531     -0.008146      3.309770
  O      -2.264651     -0.261554      1.158201
  C      -2.374486     -0.345662      4.037492
  C      -2.388954     -0.207153      5.410487
  C      -1.260864      0.283307      6.085078
  C      -0.117038      0.617400      5.357504
  C      -0.103328      0.470715      3.978222
  S      -1.393913      0.445172      7.827067
  C       0.181487      1.155761      8.312280
  H       0.290803      7.036065      4.551434
  H      -0.193687      5.329134      4.491528
  H      -0.760007      6.477817      3.235484
  H      -0.895502      4.320760      2.486615
  H      -1.278504      2.383460      1.060305
  H       2.798070      2.539719     -0.294949
  H       3.204113      4.483938      1.163352
  H      -3.252745     -0.716934      3.519270
  H      -3.282608     -0.473350      5.968062
  H       0.768878      0.998441      5.850985
  H       0.789924      0.748559      3.428978
  H       0.122241      1.285868      9.395353
  H       0.338653      2.132217      7.850213
  H       1.012957      0.486233      8.084953
36
Coordinates from ORCA-job /burg/berkelbach/users/eav2136/projects/peroxide_dissociation/05_range_separated_functional/wb97x-v-peroxide-nmf/wb97x-v-peroxide-nmf_opt E -1715.356175396298
  C       0.076135      6.206449      3.880022
  S       1.586922      5.914382      2.954156
  C       1.193614      4.532277      1.942222
  C      -0.069045      3.937411      1.898521
  C      -0.286829      2.829059      1.094186
  C       0.743909      2.314470      0.312806
  C       1.996060      2.929727      0.323245
  C       2.222864      4.021416      1.141650
  C       0.547051      1.156098     -0.587739
  O      -0.052173      0.009145     -0.098210
  O       0.860161      1.101168     -1.746000
  O      -0.018624     -0.026729      1.313866
  C      -1.286256     -0.123098      1.839247
  C      -1.231818     -0.008190      3.310488
  O      -2.264976     -0.271785      1.159140
  C      -2.372020     -0.358731      4.039371
  C      -2.386907     -0.219763      5.412290
  C      -1.264063      0.283984      6.085718
  C      -0.125292      0.632062      5.356835
  C      -0.110965      0.484585      3.977703
  S      -1.396862      0.443648      7.827813
  C       0.181812      1.145865      8.314555
  H       0.297677      7.044141      4.545161
  H      -0.194953      5.339548      4.486046
  H      -0.751169      6.489070      3.226392
  H      -0.891573      4.323747      2.488351
  H      -1.278158      2.386408      1.062691
  H       2.797366      2.537041     -0.295314
  H       3.207422      4.480225      1.163001
  H      -3.246275     -0.740456      3.522064
  H      -3.276837     -0.496127      5.970767
  H       0.756046      1.024792      5.849224
  H       0.778047      0.773391      3.427304
  H       0.116530      1.290535      9.395385
  H       0.351084      2.114716      7.840904
  H       1.008572      0.465941      8.101670
36
Coordinates from ORCA-job /burg/berkelbach/users/eav2136/projects/peroxide_dissociation/05_range_separated_functional/wb97x-v-peroxide-nmf/wb97x-v-peroxide-nmf_opt E -1715.356178338092
  C       0.080977      6.201816      3.885826
  S       1.588854      5.912813      2.954186
  C       1.194240      4.531215      1.941691
  C      -0.068755      3.936818      1.898266
  C      -0.287211      2.828691      1.093632
  C       0.743222      2.313938      0.311897
  C       1.995789      2.928227      0.322486
  C       2.223138      4.019860      1.140963
  C       0.545001      1.156002     -0.589189
  O      -0.053166      0.008592     -0.099215
  O       0.853509      1.102623     -1.748775
  O      -0.018591     -0.027601      1.312627
  C      -1.286559     -0.120300      1.838022
  C      -1.231637     -0.007717      3.309522
  O      -2.265515     -0.265957      1.157491
  C      -2.370689     -0.361718      4.038614
  C      -2.384785     -0.225239      5.411863
  C      -1.262521      0.279847      6.085360
  C      -0.124695      0.630912      5.356305
  C      -0.111058      0.485767      3.976858
  S      -1.394082      0.435595      7.828026
  C       0.176523      1.156888      8.313194
  H       0.303938      7.038734      4.551552
  H      -0.187115      5.333661      4.491449
  H      -0.748923      6.484617      3.235531
  H      -0.891011      4.323140      2.488554
  H      -1.278601      2.385854      1.062647
  H       2.796927      2.535315     -0.296265
  H       3.207995      4.478179      1.162074
  H      -3.244643     -0.744546      3.521483
  H      -3.273766     -0.504607      5.970459
  H       0.756612      1.023765      5.848755
  H       0.777318      0.776587      3.426419
  H       0.115509      1.288788      9.395956
  H       0.327690      2.133469      7.849333
  H       1.012557      0.492392      8.087931
36
Coordinates from ORCA-job /burg/berkelbach/users/eav2136/projects/peroxide_dissociation/05_range_separated_functional/wb97x-v-peroxide-nmf/wb97x-v-peroxide-nmf_opt E -1715.356180715957
  C       0.071651      6.211469      3.874345
  S       1.584287      5.915796      2.952530
  C       1.192151      4.532234      1.941579
  C      -0.071758      3.940145      1.893054
  C      -0.288267      2.830739      1.089578
  C       0.745176      2.312540      0.314062
  C       1.998835      2.924355      0.329655
  C       2.224112      4.017192      1.147188
  C       0.548260      1.153875     -0.586625
  O      -0.052301      0.007381     -0.097285
  O       0.855366      1.100860     -1.746599
  O      -0.018408     -0.030594      1.314485
  C      -1.287194     -0.116344      1.839312
  C      -1.232025     -0.004906      3.310931
  O      -2.267152     -0.250416      1.157817
  C      -2.372468     -0.354770      4.039838
  C      -2.385399     -0.220501      5.413349
  C      -1.260636      0.278450      6.087275
  C      -0.121552      0.625809      5.358323
  C      -0.109095      0.482864      3.978601
  S      -1.390411      0.430484      7.830463
  C       0.183508      1.143878      8.316681
  H       0.293059      7.049306      4.539473
  H      -0.202815      5.345552      4.480351
  H      -0.753417      6.495246      3.218323
  H      -0.896317      4.329259      2.478351
  H      -1.280272      2.389486      1.054426
  H       2.802384      2.528778     -0.284316
  H       3.209779      4.473648      1.172256
  H      -3.248264     -0.733263      3.522561
  H      -3.275354     -0.497116      5.971823
  H       0.761775      1.013875      5.851031
  H       0.780472      0.770339      3.428259
  H       0.124033      1.272074      9.399999
  H       0.337888      2.121612      7.856259
  H       1.016849      0.477081      8.088176
36
Coordinates from ORCA-job /burg/berkelbach/users/eav2136/projects/peroxide_dissociation/05_range_separated_functional/wb97x-v-peroxide-nmf/wb97x-v-peroxide-nmf_opt E -1715.356180519844
  C       0.076203      6.207940      3.878851
  S       1.588012      5.911979      2.955826
  C       1.193880      4.530081      1.943469
  C      -0.070713      3.939597      1.894499
  C      -0.288745      2.831442      1.089740
  C       0.743908      2.312932      0.313435
  C       1.998271      2.923181      0.329477
  C       2.225028      4.014721      1.148291
  C       0.545080      1.155464     -0.588376
  O      -0.054203      0.008474     -0.098840
  O       0.852426      1.102788     -1.748229
  O      -0.020063     -0.029055      1.312965
  C      -1.288544     -0.116007      1.838328
  C      -1.232522     -0.005343      3.309923
  O      -2.268451     -0.254093      1.157670
  C      -2.370590     -0.360916      4.039688
  C      -2.382950     -0.227210      5.413234
  C      -1.260031      0.276858      6.086345
  C      -0.123395      0.630171      5.356484
  C      -0.111394      0.487573      3.976755
  S      -1.389270      0.428175      7.829574
  C       0.180704      1.151083      8.314393
  H       0.298334      7.045662      4.543832
  H      -0.198055      5.342082      4.485005
  H      -0.749277      6.491947      3.223466
  H      -0.894640      4.328982      2.480470
  H      -1.281158      2.391232      1.054352
  H       2.801205      2.527351     -0.285076
  H       3.211249      4.469883      1.173776
  H      -3.245035     -0.743245      3.522999
  H      -3.271084     -0.508168      5.972386
  H       0.758261      1.022855      5.848480
  H       0.776081      0.779870      3.425623
  H       0.120814      1.280282      9.397541
  H       0.329396      2.129085      7.852705
  H       1.017743      0.488766      8.086466
