18
Coordinates from ORCA-job /burg/berkelbach/users/eav2136/projects/peroxide_dissociation/04_solvated_radical/nmf/nmf_radical_opt E -857.200274567726
  C      -0.074257      6.450078      3.546369
  S       1.489796      6.080482      2.755983
  C       1.149367      4.636622      1.833692
  C      -0.091366      4.003053      1.793384
  C      -0.258269      2.842695      1.059363
  C       0.800510      2.302714      0.339239
  C       2.028757      2.960408      0.342019
  C       2.207648      4.103303      1.091211
  C       0.662544      1.099418     -0.506902
  O       0.000000      0.000000      0.000000
  O       1.067139      0.987171     -1.623577
  H       0.104163      7.346077      4.140874
  H      -0.388823      5.643873      4.210020
  H      -0.853239      6.664434      2.813856
  H      -0.937000      4.405134      2.334216
  H      -1.235074      2.374970      1.027490
  H       2.845447      2.558826     -0.245767
  H       3.172953      4.596710      1.102483
18
Coordinates from ORCA-job /burg/berkelbach/users/eav2136/projects/peroxide_dissociation/04_solvated_radical/nmf/nmf_radical_opt E -857.213201523581
  C      -0.069760      6.437110      3.551648
  S       1.474034      6.066704      2.730233
  C       1.138197      4.631978      1.818047
  C      -0.110238      4.000980      1.782409
  C      -0.276753      2.850299      1.044554
  C       0.789677      2.318320      0.317021
  C       2.035242      2.957062      0.338766
  C       2.210810      4.096267      1.083082
  C       0.636779      1.116694     -0.508061
  O       0.030591      0.093671      0.067868
  O       1.106221      0.964948     -1.614962
  H       0.119855      7.337414      4.137971
  H      -0.364461      5.631353      4.224657
  H      -0.862070      6.644239      2.831759
  H      -0.954532      4.402936      2.325929
  H      -1.249190      2.372866      1.016869
  H       2.857488      2.547133     -0.235828
  H       3.178406      4.585992      1.101990
18
Coordinates from ORCA-job /burg/berkelbach/users/eav2136/projects/peroxide_dissociation/04_solvated_radical/nmf/nmf_radical_opt E -857.220082863734
  C      -0.068986      6.428817      3.542058
  S       1.447657      6.023844      2.705746
  C       1.125604      4.613581      1.812972
  C      -0.134230      3.979146      1.783051
  C      -0.285670      2.839057      1.048944
  C       0.801033      2.316046      0.318982
  C       2.057957      2.957033      0.341101
  C       2.224094      4.089171      1.079533
  C       0.625769      1.105520     -0.488926
  O       0.030712      0.247081      0.134562
  O       1.099468      0.997584     -1.645291
  H       0.145596      7.331521      4.117442
  H      -0.360557      5.627814      4.222365
  H      -0.861593      6.639094      2.823348
  H      -0.979547      4.378436      2.327113
  H      -1.249146      2.345738      1.015850
  H       2.884092      2.549645     -0.228632
  H       3.188043      4.586840      1.103735
18
Coordinates from ORCA-job /burg/berkelbach/users/eav2136/projects/peroxide_dissociation/04_solvated_radical/nmf/nmf_radical_opt E -857.223272476052
  C      -0.065885      6.434186      3.551713
  S       1.448958      6.035649      2.706410
  C       1.124052      4.623175      1.812198
  C      -0.133812      3.989607      1.775332
  C      -0.286714      2.849482      1.034462
  C       0.794414      2.326738      0.301356
  C       2.051193      2.960322      0.341117
  C       2.219753      4.093054      1.085085
  C       0.622732      1.092677     -0.498150
  O       0.046115      0.171011      0.136685
  O       1.098219      0.991439     -1.647065
  H       0.148671      7.337145      4.125581
  H      -0.350905      5.632042      4.233438
  H      -0.863827      6.641270      2.837939
  H      -0.978243      4.389432      2.320097
  H      -1.248363      2.352561      1.004644
  H       2.879162      2.548559     -0.222734
  H       3.184776      4.587620      1.115843
18
Coordinates from ORCA-job /burg/berkelbach/users/eav2136/projects/peroxide_dissociation/04_solvated_radical/nmf/nmf_radical_opt E -857.223788849913
  C      -0.073982      6.451744      3.533628
  S       1.453375      6.020667      2.728376
  C       1.130901      4.611035      1.833940
  C      -0.122395      3.967795      1.800464
  C      -0.271731      2.833180      1.048544
  C       0.805221      2.326359      0.299268
  C       2.057710      2.963729      0.343565
  C       2.225175      4.091370      1.097781
  C       0.634255      1.083651     -0.501254
  O       0.029078      0.161573      0.105994
  O       1.035344      1.033883     -1.679159
  H       0.144801      7.351690      4.110255
  H      -0.391153      5.656045      4.208718
  H      -0.848625      6.671621      2.798301
  H      -0.963451      4.357541      2.357730
  H      -1.226502      2.322437      1.025247
  H       2.885184      2.560080     -0.227149
  H       3.187092      4.591565      1.129705
18
Coordinates from ORCA-job /burg/berkelbach/users/eav2136/projects/peroxide_dissociation/04_solvated_radical/nmf/nmf_radical_opt E -857.224671016503
  C      -0.065095      6.461879      3.539771
  S       1.447023      6.011856      2.722663
  C       1.120383      4.612552      1.836734
  C      -0.137027      3.973362      1.791256
  C      -0.279585      2.839356      1.037809
  C       0.800262      2.324117      0.297561
  C       2.046302      2.965958      0.343401
  C       2.217867      4.089666      1.105872
  C       0.620010      1.052640     -0.501979
  O       0.095583      0.098798      0.109080
  O       1.030598      1.073101     -1.679515
  H       0.172337      7.357100      4.114777
  H      -0.384075      5.664834      4.213117
  H      -0.840303      6.689585      2.806986
  H      -0.975957      4.367268      2.348651
  H      -1.230479      2.322709      1.006794
  H       2.872733      2.562921     -0.228756
  H       3.179719      4.588266      1.149730
18
Coordinates from ORCA-job /burg/berkelbach/users/eav2136/projects/peroxide_dissociation/04_solvated_radical/nmf/nmf_radical_opt E -857.224683861312
  C      -0.058598      6.441495      3.559914
  S       1.433084      6.046885      2.677404
  C       1.112234      4.633457      1.804864
  C      -0.147105      3.998490      1.755252
  C      -0.284747      2.851917      1.021998
  C       0.804615      2.317077      0.310666
  C       2.051720      2.957527      0.354202
  C       2.216738      4.094509      1.096117
  C       0.629324      1.048063     -0.482229
  O       0.073988      0.106581      0.120933
  O       1.050012      1.057597     -1.655357
  H       0.168635      7.347983      4.121786
  H      -0.317237      5.636263      4.249118
  H      -0.873948      6.635673      2.861976
  H      -0.992094      4.406186      2.293461
  H      -1.240054      2.342793      0.983911
  H       2.883332      2.543673     -0.203077
  H       3.180397      4.589800      1.143014
18
Coordinates from ORCA-job /burg/berkelbach/users/eav2136/projects/peroxide_dissociation/04_solvated_radical/nmf/nmf_radical_opt E -857.224706867767
  C      -0.070991      6.460292      3.524994
  S       1.457110      6.010149      2.733879
  C       1.127986      4.606875      1.839227
  C      -0.128402      3.965171      1.805754
  C      -0.273933      2.828629      1.060520
  C       0.806703      2.308800      0.325789
  C       2.049448      2.960063      0.345503
  C       2.220355      4.088343      1.096845
  C       0.623346      1.069453     -0.497022
  O       0.074442      0.111067      0.086362
  O       1.028567      1.107728     -1.674139
  H       0.159501      7.345657      4.118885
  H      -0.412101      5.657016      4.179532
  H      -0.829475      6.704787      2.780456
  H      -0.965877      4.360756      2.364517
  H      -1.230194      2.319620      1.029421
  H       2.871875      2.562334     -0.237029
  H       3.181935      4.589228      1.130459
18
Coordinates from ORCA-job /burg/berkelbach/users/eav2136/projects/peroxide_dissociation/04_solvated_radical/nmf/nmf_radical_opt E -857.224793914216
  C      -0.065938      6.454343      3.539747
  S       1.447689      6.022620      2.712709
  C       1.121567      4.617017      1.826789
  C      -0.136404      3.978506      1.785733
  C      -0.278743      2.838559      1.043530
  C       0.804098      2.314849      0.314660
  C       2.049683      2.959658      0.348136
  C       2.219034      4.090216      1.098203
  C       0.623749      1.058161     -0.492542
  O       0.079144      0.104280      0.100281
  O       1.036150      1.089103     -1.668189
  H       0.164554      7.350068      4.117333
  H      -0.374298      5.652066      4.211625
  H      -0.847733      6.676517      2.812398
  H      -0.976393      4.378909      2.336946
  H      -1.233291      2.327457      1.011441
  H       2.876121      2.554777     -0.223090
  H       3.181306      4.588860      1.138244
18
Coordinates from ORCA-job /burg/berkelbach/users/eav2136/projects/peroxide_dissociation/04_solvated_radical/nmf/nmf_radical_opt E -857.224792957936
  C      -0.065743      6.452837      3.540521
  S       1.447124      6.024746      2.709964
  C       1.121426      4.618356      1.824747
  C      -0.136747      3.980320      1.783885
  C      -0.279038      2.839351      1.043184
  C       0.804047      2.314482      0.315648
  C       2.050035      2.958915      0.348915
  C       2.219170      4.090373      1.097540
  C       0.623834      1.058135     -0.491145
  O       0.077793      0.104038      0.099830
  O       1.037426      1.090020     -1.666551
  H       0.163650      7.349338      4.117332
  H      -0.370448      5.649935      4.213308
  H      -0.849838      6.672636      2.814959
  H      -0.976909      4.381965      2.333934
  H      -1.233806      2.328629      1.011493
  H       2.876780      2.553049     -0.221124
  H       3.181541      4.588845      1.137512
18
Coordinates from ORCA-job /burg/berkelbach/users/eav2136/projects/peroxide_dissociation/04_solvated_radical/nmf/nmf_radical_opt E -857.224792872583
  C      -0.065915      6.452587      3.540184
  S       1.447227      6.025127      2.709568
  C       1.121749      4.618488      1.824378
  C      -0.136506      3.980656      1.784036
  C      -0.278994      2.839242      1.043901
  C       0.803853      2.314165      0.316365
  C       2.050154      2.958427      0.349271
  C       2.219367      4.090166      1.097364
  C       0.623530      1.058477     -0.490755
  O       0.077264      0.103222      0.097819
  O       1.037698      1.092592     -1.666245
  H       0.162726      7.349569      4.116522
  H      -0.369867      5.649755      4.213386
  H      -0.850293      6.671281      2.814612
  H      -0.976524      4.382799      2.333889
  H      -1.233833      2.328608      1.013016
  H       2.876915      2.552160     -0.220402
  H       3.181743      4.588647      1.137043
18
Coordinates from ORCA-job /burg/berkelbach/users/eav2136/projects/peroxide_dissociation/04_solvated_radical/nmf/nmf_radical_opt E -857.224793374848
  C      -0.066046      6.452923      3.539837
  S       1.447314      6.024886      2.709914
  C       1.121891      4.618208      1.824736
  C      -0.136304      3.980273      1.784611
  C      -0.278876      2.838950      1.044305
  C       0.803803      2.314129      0.316394
  C       2.050131      2.958383      0.349271
  C       2.219413      4.090006      1.097521
  C       0.623417      1.058719     -0.491053
  O       0.077340      0.103093      0.097091
  O       1.037530      1.093225     -1.666647
  H       0.162657      7.349832      4.116264
  H      -0.370574      5.650219      4.212936
  H      -0.850023      6.671910      2.813916
  H      -0.976248      4.382194      2.334725
  H      -1.233710      2.328287      1.013629
  H       2.876806      2.552210     -0.220586
  H       3.181777      4.588521      1.137090
