18
Coordinates from ORCA-job /burg/berkelbach/users/eav2136/projects/peroxide_dissociation/04_solvated_radical/dmso/dmso_radical_opt E -857.204139203757
  C      -0.074257      6.450078      3.546369
  S       1.489796      6.080482      2.755983
  C       1.149367      4.636622      1.833692
  C      -0.091366      4.003053      1.793384
  C      -0.258269      2.842695      1.059363
  C       0.800510      2.302714      0.339239
  C       2.028757      2.960408      0.342019
  C       2.207648      4.103303      1.091211
  C       0.662544      1.099418     -0.506902
  O       0.000000      0.000000      0.000000
  O       1.067139      0.987171     -1.623577
  H       0.104163      7.346077      4.140874
  H      -0.388823      5.643873      4.210020
  H      -0.853239      6.664434      2.813856
  H      -0.937000      4.405134      2.334216
  H      -1.235074      2.374970      1.027490
  H       2.845447      2.558826     -0.245767
  H       3.172953      4.596710      1.102483
18
Coordinates from ORCA-job /burg/berkelbach/users/eav2136/projects/peroxide_dissociation/04_solvated_radical/dmso/dmso_radical_opt E -857.210251152530
  C      -0.072290      6.439410      3.553950
  S       1.477441      6.083227      2.731529
  C       1.142133      4.638204      1.817814
  C      -0.100948      4.003407      1.785259
  C      -0.269103      2.847367      1.048157
  C       0.791454      2.317068      0.317707
  C       2.033194      2.957793      0.338084
  C       2.208671      4.100943      1.082091
  C       0.640636      1.117487     -0.511662
  O      -0.009729      0.090381      0.027482
  O       1.123857      0.932279     -1.600803
  H       0.108561      7.342173      4.139259
  H      -0.360793      5.633594      4.229574
  H      -0.868869      6.639397      2.836756
  H      -0.944773      4.404486      2.330410
  H      -1.241997      2.369660      1.025821
  H       2.856362      2.548707     -0.236127
  H       3.176488      4.590386      1.098650
18
Coordinates from ORCA-job /burg/berkelbach/users/eav2136/projects/peroxide_dissociation/04_solvated_radical/dmso/dmso_radical_opt E -857.211255884294
  C      -0.084077      6.428656      3.543839
  S       1.459129      6.070532      2.714743
  C       1.143265      4.627866      1.813342
  C      -0.100204      3.984021      1.788113
  C      -0.257240      2.833109      1.048314
  C       0.816633      2.317187      0.314217
  C       2.065248      2.960132      0.339408
  C       2.226272      4.101204      1.079601
  C       0.652024      1.110608     -0.478402
  O      -0.064787      0.263394      0.058543
  O       1.058419      0.908933     -1.626972
  H       0.099691      7.335278      4.123730
  H      -0.363969      5.624357      4.224721
  H      -0.883154      6.623408      2.828484
  H      -0.944606      4.378481      2.337440
  H      -1.220690      2.336700      1.027802
  H       2.897615      2.554214     -0.223395
  H       3.190727      4.597888      1.100427
18
Coordinates from ORCA-job /burg/berkelbach/users/eav2136/projects/peroxide_dissociation/04_solvated_radical/dmso/dmso_radical_opt E -857.214517653807
  C      -0.075181      6.432680      3.552663
  S       1.465375      6.066045      2.723117
  C       1.138747      4.629827      1.816830
  C      -0.108514      3.995198      1.782611
  C      -0.273186      2.851463      1.032718
  C       0.796533      2.327489      0.299402
  C       2.046324      2.964219      0.332330
  C       2.216707      4.099643      1.081725
  C       0.627243      1.107764     -0.496249
  O       0.013869      0.167302      0.093157
  O       1.091616      0.914915     -1.622079
  H       0.116887      7.332608      4.138780
  H      -0.363728      5.625758      4.226911
  H      -0.871304      6.640226      2.837400
  H      -0.950566      4.392446      2.332840
  H      -1.240250      2.364457      1.004740
  H       2.875723      2.554254     -0.231114
  H       3.184002      4.589674      1.108169
18
Coordinates from ORCA-job /burg/berkelbach/users/eav2136/projects/peroxide_dissociation/04_solvated_radical/dmso/dmso_radical_opt E -857.215478369156
  C      -0.073163      6.429745      3.557161
  S       1.456766      6.071652      2.706675
  C       1.133993      4.634663      1.809237
  C      -0.114810      4.000761      1.769271
  C      -0.274117      2.856199      1.022086
  C       0.800219      2.328834      0.294776
  C       2.052763      2.959371      0.342757
  C       2.219105      4.097969      1.087110
  C       0.631411      1.095985     -0.490408
  O       0.042548      0.152068      0.122173
  O       1.046299      0.945132     -1.643875
  H       0.120177      7.335175      4.134216
  H      -0.342872      5.623779      4.240206
  H      -0.881134      6.624561      2.851603
  H      -0.959331      4.401293      2.313356
  H      -1.239920      2.367084      0.988741
  H       2.885949      2.544176     -0.211267
  H       3.186412      4.587522      1.120133
18
Coordinates from ORCA-job /burg/berkelbach/users/eav2136/projects/peroxide_dissociation/04_solvated_radical/dmso/dmso_radical_opt E -857.217168403010
  C      -0.074187      6.442054      3.540836
  S       1.452154      6.035132      2.714770
  C       1.129382      4.616742      1.825557
  C      -0.124628      3.981825      1.779062
  C      -0.274843      2.849411      1.022868
  C       0.805605      2.326699      0.286614
  C       2.060496      2.954973      0.352067
  C       2.224597      4.085574      1.102902
  C       0.617214      1.075526     -0.496401
  O       0.143811      0.138809      0.180736
  O       0.944420      1.055789     -1.698391
  H       0.140779      7.341689      4.118511
  H      -0.374037      5.641523      4.217569
  H      -0.862046      6.657923      2.818819
  H      -0.966842      4.378766      2.329223
  H      -1.234114      2.349583      0.978466
  H       2.893821      2.543660     -0.204168
  H       3.188713      4.580291      1.144916
18
Coordinates from ORCA-job /burg/berkelbach/users/eav2136/projects/peroxide_dissociation/04_solvated_radical/dmso/dmso_radical_opt E -857.217471702483
  C      -0.076279      6.451429      3.531764
  S       1.457611      6.027605      2.727924
  C       1.131824      4.611656      1.835107
  C      -0.123776      3.978501      1.785761
  C      -0.273231      2.843661      1.033125
  C       0.806340      2.318782      0.297188
  C       2.059769      2.949810      0.358553
  C       2.226278      4.078322      1.112434
  C       0.618165      1.078434     -0.507208
  O       0.200742      0.107105      0.164341
  O       0.885043      1.099283     -1.717610
  H       0.139235      7.350242      4.110695
  H      -0.393558      5.654880      4.205388
  H      -0.851545      6.672625      2.797805
  H      -0.965542      4.376987      2.335816
  H      -1.232561      2.342741      0.991393
  H       2.890746      2.541867     -0.204071
  H       3.191036      4.572039      1.155548
18
Coordinates from ORCA-job /burg/berkelbach/users/eav2136/projects/peroxide_dissociation/04_solvated_radical/dmso/dmso_radical_opt E -857.217600828043
  C      -0.068694      6.444264      3.546937
  S       1.447352      6.049615      2.695192
  C       1.122221      4.627648      1.813811
  C      -0.140521      4.006665      1.746861
  C      -0.284417      2.857991      1.015689
  C       0.803131      2.309477      0.308628
  C       2.060657      2.932619      0.381601
  C       2.225880      4.068486      1.123769
  C       0.620541      1.071350     -0.506844
  O       0.341326      0.060931      0.173497
  O       0.778100      1.138015     -1.727732
  H       0.142320      7.356959      4.105438
  H      -0.340567      5.648881      4.241614
  H      -0.873778      6.632071      2.836156
  H      -0.988110      4.425420      2.272589
  H      -1.247064      2.362428      0.968555
  H       2.896828      2.511058     -0.163521
  H       3.195091      4.552090      1.181712
18
Coordinates from ORCA-job /burg/berkelbach/users/eav2136/projects/peroxide_dissociation/04_solvated_radical/dmso/dmso_radical_opt E -857.217695090488
  C      -0.082279      6.473409      3.504983
  S       1.470470      6.000290      2.765833
  C       1.137895      4.594994      1.860198
  C      -0.122349      3.967203      1.803496
  C      -0.273852      2.833818      1.050548
  C       0.802168      2.308891      0.309721
  C       2.059202      2.935612      0.376444
  C       2.231370      4.057258      1.137854
  C       0.613758      1.089927     -0.532147
  O       0.428724      0.048527      0.133308
  O       0.666531      1.200851     -1.758186
  H       0.138647      7.360348      4.099830
  H      -0.456379      5.683286      4.156725
  H      -0.815331      6.724586      2.738134
  H      -0.962088      4.370652      2.353100
  H      -1.234507      2.333022      1.013283
  H       2.889229      2.528844     -0.189264
  H       3.199086      4.544451      1.190092
18
Coordinates from ORCA-job /burg/berkelbach/users/eav2136/projects/peroxide_dissociation/04_solvated_radical/dmso/dmso_radical_opt E -857.217778725337
  C      -0.078487      6.458088      3.523042
  S       1.462029      6.022374      2.736335
  C       1.133857      4.608926      1.840065
  C      -0.127176      3.984804      1.779086
  C      -0.278010      2.847180      1.031887
  C       0.802458      2.312315      0.305836
  C       2.062113      2.933348      0.379445
  C       2.230988      4.062291      1.130988
  C       0.616285      1.085030     -0.520170
  O       0.399382      0.058489      0.160356
  O       0.697464      1.169160     -1.749155
  H       0.136115      7.357241      4.101570
  H      -0.407586      5.664973      4.195061
  H      -0.844130      6.680411      2.779460
  H      -0.970192      4.394913      2.318474
  H      -1.240991      2.351867      0.989102
  H       2.896457      2.517442     -0.173040
  H       3.199720      4.547117      1.185612
18
Coordinates from ORCA-job /burg/berkelbach/users/eav2136/projects/peroxide_dissociation/04_solvated_radical/dmso/dmso_radical_opt E -857.217797059368
  C      -0.077993      6.452785      3.527114
  S       1.459670      6.028054      2.728757
  C       1.133393      4.612844      1.834403
  C      -0.128132      3.990652      1.771086
  C      -0.279262      2.852189      1.025131
  C       0.802617      2.313896      0.304066
  C       2.063936      2.931737      0.381837
  C       2.231907      4.062681      1.130541
  C       0.615776      1.084582     -0.517067
  O       0.409619      0.061654      0.172540
  O       0.685846      1.162332     -1.747914
  H       0.134280      7.354095      4.103156
  H      -0.395539      5.657870      4.202537
  H      -0.851335      6.668741      2.789665
  H      -0.972136      4.403024      2.307178
  H      -1.243705      2.360109      0.979555
  H       2.900148      2.512485     -0.165203
  H       3.201205      4.546239      1.186571
18
Coordinates from ORCA-job /burg/berkelbach/users/eav2136/projects/peroxide_dissociation/04_solvated_radical/dmso/dmso_radical_opt E -857.217828275972
  C      -0.078869      6.450704      3.527595
  S       1.459290      6.029490      2.727800
  C       1.134616      4.612930      1.833902
  C      -0.127752      3.993682      1.766522
  C      -0.280129      2.855683      1.019721
  C       0.802461      2.315359      0.301711
  C       2.066467      2.927604      0.387169
  C       2.234165      4.058896      1.135312
  C       0.613724      1.088184     -0.520056
  O       0.455240      0.062800      0.179765
  O       0.637266      1.164990     -1.752667
  H       0.129746      7.357053      4.097050
  H      -0.389679      5.658678      4.209440
  H      -0.855806      6.657571      2.791338
  H      -0.972762      4.408123      2.299359
  H      -1.247030      2.368771      0.970305
  H       2.904877      2.505342     -0.154154
  H       3.204468      4.540108      1.193841
18
Coordinates from ORCA-job /burg/berkelbach/users/eav2136/projects/peroxide_dissociation/04_solvated_radical/dmso/dmso_radical_opt E -857.217912512002
  C      -0.081534      6.450330      3.525152
  S       1.459743      6.028750      2.730418
  C       1.137286      4.610128      1.836295
  C      -0.127244      3.998112      1.758511
  C      -0.282671      2.861802      1.008715
  C       0.801172      2.318360      0.295493
  C       2.071573      2.915620      0.401987
  C       2.239107      4.046263      1.150732
  C       0.608071      1.098902     -0.533013
  O       0.606353      0.069930      0.183615
  O       0.486541      1.172132     -1.758604
  H       0.122667      7.363002      4.086145
  H      -0.388600      5.663909      4.214971
  H      -0.859611      6.647639      2.787559
  H      -0.974573      4.416743      2.284306
  H      -1.255511      2.387554      0.950399
  H       2.915211      2.486326     -0.125581
  H       3.212315      4.520466      1.216854
18
Coordinates from ORCA-job /burg/berkelbach/users/eav2136/projects/peroxide_dissociation/04_solvated_radical/dmso/dmso_radical_opt E -857.217974027118
  C      -0.083362      6.447693      3.524435
  S       1.461266      6.026737      2.735064
  C       1.138892      4.610055      1.835591
  C      -0.128239      4.006006      1.746636
  C      -0.286285      2.871114      0.994638
  C       0.799372      2.322904      0.288297
  C       2.074886      2.906081      0.413606
  C       2.242330      4.037266      1.161375
  C       0.603364      1.105927     -0.542109
  O       0.761252      0.091285      0.183394
  O       0.339687      1.155666     -1.742985
  H       0.121420      7.354864      4.094123
  H      -0.397101      5.657288      4.206592
  H      -0.857109      6.655121      2.785132
  H      -0.977870      4.428676      2.265450
  H      -1.264118      2.407961      0.928092
  H       2.923027      2.468195     -0.099835
  H       3.218883      4.503128      1.236458
18
Coordinates from ORCA-job /burg/berkelbach/users/eav2136/projects/peroxide_dissociation/04_solvated_radical/dmso/dmso_radical_opt E -857.218034029906
  C      -0.084526      6.452720      3.519464
  S       1.464384      6.019528      2.745559
  C       1.140458      4.604859      1.843722
  C      -0.126141      3.998221      1.757093
  C      -0.283783      2.865919      1.001361
  C       0.800825      2.322241      0.289699
  C       2.074584      2.908375      0.411352
  C       2.242464      4.037657      1.162275
  C       0.604250      1.107850     -0.548988
  O       0.746440      0.091105      0.178066
  O       0.346553      1.161913     -1.748916
  H       0.121166      7.359916      4.088807
  H      -0.410562      5.666310      4.200476
  H      -0.849671      6.663534      2.772123
  H      -0.975295      4.417756      2.279338
  H      -1.259711      2.398802      0.935582
  H       2.920441      2.474235     -0.108964
  H       3.218420      4.505030      1.235902
18
Coordinates from ORCA-job /burg/berkelbach/users/eav2136/projects/peroxide_dissociation/04_solvated_radical/dmso/dmso_radical_opt E -857.218063302152
  C      -0.084621      6.457919      3.515394
  S       1.467275      6.013828      2.754047
  C       1.140553      4.601516      1.849548
  C      -0.125195      3.991197      1.767498
  C      -0.281710      2.859890      1.010405
  C       0.801101      2.321905      0.291436
  C       2.072659      2.911630      0.407660
  C       2.241262      4.039285      1.161542
  C       0.604336      1.108820     -0.555363
  O       0.715914      0.090513      0.176052
  O       0.376379      1.164818     -1.758413
  H       0.123739      7.361706      4.089231
  H      -0.424727      5.672636      4.190868
  H      -0.840623      6.677335      2.761222
  H      -0.973262      4.407600      2.294140
  H      -1.254158      2.385102      0.947526
  H       2.915024      2.481310     -0.121553
  H       3.216349      4.508957      1.232711
18
Coordinates from ORCA-job /burg/berkelbach/users/eav2136/projects/peroxide_dissociation/04_solvated_radical/dmso/dmso_radical_opt E -857.218071216630
  C      -0.084775      6.458734      3.514446
  S       1.467856      6.012465      2.755684
  C       1.140709      4.600135      1.851113
  C      -0.125406      3.990685      1.768080
  C      -0.281991      2.859511      1.010924
  C       0.800543      2.322571      0.290560
  C       2.072858      2.910133      0.409276
  C       2.241622      4.037226      1.163950
  C       0.603093      1.111212     -0.559711
  O       0.732364      0.096022      0.174265
  O       0.361745      1.164296     -1.759346
  H       0.123197      7.363843      4.086344
  H      -0.426151      5.675315      4.191417
  H      -0.839822      6.676598      2.758851
  H      -0.973398      4.407649      2.294380
  H      -1.254126      2.384091      0.947495
  H       2.915068      2.479121     -0.119707
  H       3.216909      4.506359      1.235932
18
Coordinates from ORCA-job /burg/berkelbach/users/eav2136/projects/peroxide_dissociation/04_solvated_radical/dmso/dmso_radical_opt E -857.218073973472
  C      -0.084441      6.458909      3.514688
  S       1.467510      6.013498      2.753796
  C       1.140161      4.600271      1.850350
  C      -0.125800      3.990541      1.768249
  C      -0.282226      2.858591      1.012259
  C       0.799983      2.322515      0.290685
  C       2.072548      2.909828      0.409190
  C       2.241219      4.036967      1.163712
  C       0.603071      1.112064     -0.561081
  O       0.726095      0.098092      0.175925
  O       0.369903      1.164441     -1.762251
  H       0.123695      7.364152      4.086303
  H      -0.424848      5.675410      4.192050
  H      -0.840447      6.676323      2.759929
  H      -0.973329      4.407979      2.294891
  H      -1.253563      2.381388      0.949764
  H       2.914443      2.478509     -0.120035
  H       3.216322      4.506490      1.235528
18
Coordinates from ORCA-job /burg/berkelbach/users/eav2136/projects/peroxide_dissociation/04_solvated_radical/dmso/dmso_radical_opt E -857.218075941741
  C      -0.084152      6.458189      3.515303
  S       1.467214      6.015056      2.751581
  C       1.139878      4.600775      1.849127
  C      -0.125853      3.990844      1.768066
  C      -0.282619      2.858408      1.012786
  C       0.799197      2.322876      0.290435
  C       2.072211      2.909741      0.408707
  C       2.240864      4.037112      1.162797
  C       0.603160      1.113019     -0.561730
  O       0.717066      0.100790      0.179498
  O       0.380447      1.162893     -1.764947
  H       0.123430      7.364126      4.086009
  H      -0.422095      5.674576      4.193760
  H      -0.841968      6.673882      2.761859
  H      -0.972851      4.408783      2.295158
  H      -1.253531      2.380258      0.951183
  H       2.913991      2.477853     -0.120200
  H       3.215908      4.506787      1.234561
18
Coordinates from ORCA-job /burg/berkelbach/users/eav2136/projects/peroxide_dissociation/04_solvated_radical/dmso/dmso_radical_opt E -857.218077062559
  C      -0.084149      6.457659      3.515612
  S       1.467170      6.015311      2.751285
  C       1.139960      4.600990      1.848756
  C      -0.125784      3.991189      1.767607
  C      -0.282786      2.858855      1.012197
  C       0.799005      2.323173      0.290049
  C       2.072217      2.909766      0.408530
  C       2.240921      4.037158      1.162555
  C       0.603137      1.113046     -0.561658
  O       0.716594      0.102001      0.181395
  O       0.381068      1.161551     -1.764989
  H       0.123146      7.363803      4.086095
  H      -0.421241      5.673935      4.194359
  H      -0.842475      6.672815      2.762532
  H      -0.972719      4.409195      2.294737
  H      -1.253877      2.381102      0.950516
  H       2.914086      2.477718     -0.120080
  H       3.216023      4.506703      1.234457
