36
Coordinates from ORCA-job /burg/berkelbach/users/eav2136/projects/peroxide_dissociation/05_range_separated_functional/wb97x-d-peroxide/wb97x-d-peroxide_opt E -1715.451640214395
  C      -0.074257      6.450078      3.546369
  S       1.489796      6.080482      2.755983
  C       1.149367      4.636622      1.833692
  C      -0.091366      4.003053      1.793384
  C      -0.258269      2.842695      1.059363
  C       0.800510      2.302714      0.339239
  C       2.028757      2.960408      0.342019
  C       2.207648      4.103303      1.091211
  C       0.662544      1.099418     -0.506902
  O       0.000000      0.000000      0.000000
  O       1.067139      0.987171     -1.623577
  O       0.000000      0.000000      1.415273
  C      -1.273888      0.000000      1.915906
  C      -1.222115      0.066428      3.388315
  O      -2.257429     -0.025858      1.238757
  C      -2.415439     -0.122896      4.085953
  C      -2.441959     -0.034377      5.458877
  C      -1.272751      0.254962      6.172985
  C      -0.081778      0.450607      5.475180
  C      -0.058904      0.354404      4.095446
  S      -1.426667      0.349861      7.907885
  C       0.243161      0.684954      8.461945
  H       0.104163      7.346077      4.140874
  H      -0.388823      5.643873      4.210020
  H      -0.853239      6.664434      2.813856
  H      -0.937000      4.405134      2.334216
  H      -1.235074      2.374970      1.027490
  H       2.845447      2.558826     -0.245767
  H       3.172953      4.596710      1.102483
  H      -3.317691     -0.339000      3.527072
  H      -3.371885     -0.188084      5.994647
  H       0.834798      0.682521      5.999887
  H       0.870469      0.518836      3.566025
  H       0.184541      0.737294      9.549091
  H       0.608645      1.640295      8.083742
  H       0.925075     -0.119495      8.184590
36
Coordinates from ORCA-job /burg/berkelbach/users/eav2136/projects/peroxide_dissociation/05_range_separated_functional/wb97x-d-peroxide/wb97x-d-peroxide_opt E -1715.451350848149
  C       0.058643      6.463267      3.608878
  S       1.587573      6.086339      2.753137
  C       1.196634      4.660094      1.816750
  C      -0.070965      4.087425      1.745107
  C      -0.276578      2.937837      1.003611
  C       0.771906      2.345083      0.312889
  C       2.029130      2.942083      0.346151
  C       2.244369      4.076044      1.099791
  C       0.598629      1.141043     -0.534446
  O      -0.069092      0.045847     -0.019052
  O       1.000165      1.019026     -1.650012
  O      -0.052264      0.038656      1.393669
  C      -1.312922     -0.087973      1.914412
  C      -1.250035     -0.009951      3.391082
  O      -2.295770     -0.223429      1.251448
  C      -2.398363     -0.346629      4.106475
  C      -2.415028     -0.260271      5.479937
  C      -1.283325      0.177571      6.177103
  C      -0.139650      0.523706      5.460650
  C      -0.124458      0.426675      4.080352
  S      -1.425492      0.256849      7.918087
  C       0.194637      0.799285      8.459099
  H       0.268475      7.350912      4.203644
  H      -0.237400      5.655304      4.277465
  H      -0.746356      6.692409      2.911447
  H      -0.909605      4.529404      2.264204
  H      -1.274275      2.520391      0.944838
  H       2.840244      2.499757     -0.218849
  H       3.231722      4.521222      1.135896
  H      -3.273805     -0.677605      3.562345
  H      -3.309560     -0.530360      6.028652
  H       0.747233      0.873511      5.969764
  H       0.768254      0.707852      3.537643
  H       0.135952      0.854325      9.545038
  H       0.439215      1.787975      8.072156
  H       0.968638      0.082745      8.186168
36
Coordinates from ORCA-job /burg/berkelbach/users/eav2136/projects/peroxide_dissociation/05_range_separated_functional/wb97x-d-peroxide/wb97x-d-peroxide_opt E -1715.451690552753
  C       0.001806      6.303308      3.744329
  S       1.523292      5.999034      2.845492
  C       1.157940      4.587425      1.871920
  C      -0.094952      3.985468      1.794624
  C      -0.278418      2.852031      1.022729
  C       0.777971      2.305393      0.308717
  C       2.020926      2.928905      0.351212
  C       2.213718      4.047890      1.133357
  C       0.626416      1.109586     -0.559377
  O      -0.037408      0.004007     -0.060325
  O       0.998751      1.022864     -1.687323
  O      -0.025507     -0.007386      1.350070
  C      -1.293393     -0.057808      1.867781
  C      -1.231528      0.039985      3.346953
  O      -2.279500     -0.135077      1.202223
  C      -2.396738     -0.224998      4.063724
  C      -2.412496     -0.113152      5.435572
  C      -1.263230      0.280423      6.129192
  C      -0.102152      0.553767      5.410701
  C      -0.087872      0.430702      4.032069
  S      -1.409991      0.404715      7.870366
  C       0.221718      0.914129      8.411079
  H       0.206172      7.161225      4.381943
  H      -0.269711      5.456675      4.373561
  H      -0.818373      6.555700      3.074247
  H      -0.939871      4.390374      2.332923
  H      -1.264329      2.406496      0.965676
  H       2.839442      2.519195     -0.227039
  H       3.190588      4.514362      1.176733
  H      -3.286878     -0.519806      3.523169
  H      -3.321305     -0.326871      5.985086
  H       0.800143      0.868268      5.915387
  H       0.819336      0.657281      3.487917
  H       0.158494      0.991517      9.494778
  H       0.495460      1.888083      8.008367
  H       0.977959      0.172708      8.157701
36
Coordinates from ORCA-job /burg/berkelbach/users/eav2136/projects/peroxide_dissociation/05_range_separated_functional/wb97x-d-peroxide/wb97x-d-peroxide_opt E -1715.451460717254
  C      -0.093975      6.207509      3.802885
  S       1.470072      5.873909      2.991283
  C       1.120124      4.491524      1.968948
  C      -0.132844      3.897324      1.848614
  C      -0.304325      2.788908      1.038367
  C       0.763309      2.265928      0.323957
  C       2.006592      2.883754      0.407713
  C       2.187537      3.975511      1.230781
  C       0.620665      1.094641     -0.579532
  O      -0.011695     -0.035208     -0.095348
  O       1.038249      1.021544     -1.691823
  O      -0.004739     -0.049644      1.314378
  C      -1.274555      0.004333      1.826666
  C      -1.207473      0.099915      3.305853
  O      -2.262243     -0.010453      1.159836
  C      -2.385540     -0.096249      4.023257
  C      -2.395610      0.030378      5.394005
  C      -1.227050      0.369066      6.084082
  C      -0.051615      0.567800      5.365224
  C      -0.043330      0.430363      3.987712
  S      -1.369100      0.525854      7.823892
  C       0.282671      0.980532      8.351767
  H       0.106620      7.019158      4.500217
  H      -0.447773      5.342844      4.363680
  H      -0.854202      6.537354      3.096123
  H      -0.986903      4.285942      2.385307
  H      -1.288679      2.343133      0.953832
  H       2.834913      2.491349     -0.168944
  H       3.164685      4.437548      1.307600
  H      -3.291455     -0.344226      3.484854
  H      -3.315519     -0.126762      5.944598
  H       0.867078      0.837535      5.867471
  H       0.874919      0.603212      3.441953
  H       0.222766      1.088525      9.433446
  H       0.597132      1.931775      7.924162
  H       1.007772      0.201797      8.118713
36
Coordinates from ORCA-job /burg/berkelbach/users/eav2136/projects/peroxide_dissociation/05_range_separated_functional/wb97x-d-peroxide/wb97x-d-peroxide_opt E -1715.451816750618
  C      -0.040544      6.277710      3.763188
  S       1.518572      5.918624      2.953523
  C       1.151273      4.530421      1.945957
  C      -0.110629      3.954961      1.826448
  C      -0.295914      2.839810      1.028488
  C       0.767034      2.290690      0.326071
  C       2.018871      2.891820      0.406257
  C       2.213450      3.989950      1.217676
  C       0.611532      1.114207     -0.568095
  O      -0.043941     -0.003257     -0.083622
  O       0.996567      1.043644     -1.692399
  O      -0.029500     -0.034073      1.326506
  C      -1.297419     -0.042805      1.846295
  C      -1.225642      0.049790      3.324400
  O      -2.287938     -0.092705      1.184925
  C      -2.389449     -0.202507      4.047815
  C      -2.397104     -0.080994      5.419012
  C      -1.240859      0.308602      6.103194
  C      -0.079761      0.563344      5.378483
  C      -0.073489      0.431100      4.000495
  S      -1.378336      0.450857      7.843951
  C       0.257344      0.969995      8.361489
  H       0.166465      7.104386      4.441109
  H      -0.395608      5.427560      4.345212
  H      -0.802366      6.594215      3.051665
  H      -0.961168      4.364154      2.353498
  H      -1.287390      2.411143      0.941807
  H       2.843006      2.481408     -0.163973
  H       3.197137      4.438553      1.292088
  H      -3.286347     -0.489924      3.513751
  H      -3.305526     -0.282146      5.974553
  H       0.828771      0.872611      5.876603
  H       0.832672      0.647251      3.449947
  H       0.201984      1.068224      9.444582
  H       0.528530      1.936380      7.937647
  H       1.012201      0.223422      8.116984
36
Coordinates from ORCA-job /burg/berkelbach/users/eav2136/projects/peroxide_dissociation/05_range_separated_functional/wb97x-d-peroxide/wb97x-d-peroxide_opt E -1715.451728044421
  C      -0.030389      6.195264      3.838167
  S       1.497494      5.917464      2.941886
  C       1.138349      4.526798      1.934338
  C      -0.120696      3.945520      1.812450
  C      -0.298634      2.827807      1.016150
  C       0.769453      2.281061      0.319677
  C       2.019190      2.885712      0.404633
  C       2.205769      3.987868      1.212684
  C       0.619696      1.103920     -0.574766
  O      -0.033707     -0.014857     -0.090267
  O       1.000857      1.036515     -1.700383
  O      -0.024614     -0.043310      1.320014
  C      -1.294147     -0.035992      1.836290
  C      -1.224695      0.065156      3.313666
  O      -2.283541     -0.079132      1.172603
  C      -2.388192     -0.187310      4.037573
  C      -2.397529     -0.055901      5.407897
  C      -1.243722      0.344735      6.089953
  C      -0.083185      0.600140      5.364709
  C      -0.074889      0.457184      3.987740
  S      -1.383238      0.499660      7.829526
  C       0.255338      1.011004      8.345174
  H       0.158823      7.056327      4.477433
  H      -0.287407      5.342793      4.466434
  H      -0.855210      6.433855      3.167600
  H      -0.975071      4.352875      2.334508
  H      -1.287872      2.394317      0.926942
  H       2.847209      2.477657     -0.161632
  H       3.187209      4.441116      1.288872
  H      -3.283267     -0.483093      3.505078
  H      -3.305328     -0.257803      5.964157
  H       0.823335      0.917613      5.861063
  H       0.830644      0.673494      3.436413
  H       0.197693      1.124373      9.426717
  H       0.536366      1.969011      7.908890
  H       1.004388      0.254579      8.113337
36
Coordinates from ORCA-job /burg/berkelbach/users/eav2136/projects/peroxide_dissociation/05_range_separated_functional/wb97x-d-peroxide/wb97x-d-peroxide_opt E -1715.451797667128
  C      -0.024432      6.188011      3.856122
  S       1.518938      5.872862      2.999420
  C       1.148471      4.498828      1.972476
  C      -0.115505      3.930691      1.840890
  C      -0.302340      2.825882      1.028646
  C       0.761816      2.279755      0.325876
  C       2.016692      2.871841      0.420552
  C       2.211987      3.960527      1.244824
  C       0.601997      1.114999     -0.583605
  O      -0.048798     -0.008948     -0.107349
  O       0.978236      1.059755     -1.711321
  O      -0.034658     -0.049357      1.302387
  C      -1.302201     -0.049224      1.823910
  C      -1.226731      0.053957      3.301050
  O      -2.294106     -0.096222      1.164375
  C      -2.382148     -0.215434      4.031635
  C      -2.386338     -0.080127      5.401657
  C      -1.235992      0.342411      6.076244
  C      -0.083573      0.614360      5.344308
  C      -0.079958      0.466678      3.967739
  S      -1.369925      0.503495      7.816057
  C       0.254991      1.068708      8.318530
  H       0.181534      7.015495      4.533352
  H      -0.340659      5.325738      4.442629
  H      -0.814642      6.489185      3.169466
  H      -0.966871      4.337617      2.368086
  H      -1.294927      2.401452      0.933109
  H       2.842098      2.464213     -0.149770
  H       3.197460      4.403404      1.329149
  H      -3.275207     -0.527173      3.504948
  H      -3.287732     -0.295301      5.963267
  H       0.820123      0.948709      5.834578
  H       0.818850      0.696478      3.410940
  H       0.202811      1.179117      9.400622
  H       0.500203      2.035953      7.881167
  H       1.027016      0.338083      8.079564
36
Coordinates from ORCA-job /burg/berkelbach/users/eav2136/projects/peroxide_dissociation/05_range_separated_functional/wb97x-d-peroxide/wb97x-d-peroxide_opt E -1715.451800929098
  C      -0.021690      6.160382      3.891897
  S       1.533014      5.820287      3.065877
  C       1.155181      4.463066      2.018700
  C      -0.113899      3.910578      1.870652
  C      -0.307000      2.819515      1.041213
  C       0.756033      2.272798      0.337225
  C       2.016356      2.849989      0.448166
  C       2.217645      3.924256      1.290051
  C       0.587595      1.123403     -0.590844
  O      -0.064183     -0.005717     -0.128248
  O       0.956191      1.085513     -1.721539
  O      -0.047628     -0.062822      1.280670
  C      -1.313680     -0.056297      1.806064
  C      -1.230795      0.048887      3.282362
  O      -2.308235     -0.105901      1.150782
  C      -2.374852     -0.242222      4.022485
  C      -2.372346     -0.097777      5.391673
  C      -1.227465      0.356848      6.054770
  C      -0.086165      0.648605      5.313385
  C      -0.088701      0.490992      3.937940
  S      -1.353397      0.531122      7.793987
  C       0.262979      1.134187      8.279296
  H       0.189305      6.969341      4.589713
  H      -0.373935      5.295570      4.453802
  H      -0.787421      6.495053      3.193058
  H      -0.964546      4.318471      2.398374
  H      -1.302951      2.405728      0.934054
  H       2.841416      2.442462     -0.122729
  H       3.207169      4.355399      1.386968
  H      -3.264904     -0.576395      3.504462
  H      -3.264716     -0.329298      5.961192
  H       0.813027      1.007511      5.794404
  H       0.800369      0.738081      3.372930
  H       0.211327      1.269109      9.358666
  H       0.490852      2.094715      7.818255
  H       1.046528      0.410980      8.055816
36
Coordinates from ORCA-job /burg/berkelbach/users/eav2136/projects/peroxide_dissociation/05_range_separated_functional/wb97x-d-peroxide/wb97x-d-peroxide_opt E -1715.451783503770
  C      -0.039727      6.126710      3.927848
  S       1.527996      5.767293      3.135565
  C       1.150604      4.427056      2.066113
  C      -0.123922      3.897244      1.885378
  C      -0.317041      2.817899      1.040557
  C       0.751781      2.260880      0.353639
  C       2.018778      2.815562      0.497393
  C       2.219494      3.877720      1.354979
  C       0.580739      1.126642     -0.593108
  O      -0.077548     -0.006274     -0.149432
  O       0.955060      1.103299     -1.722113
  O      -0.061824     -0.085941      1.258444
  C      -1.326457     -0.057304      1.786993
  C      -1.234629      0.049588      3.262198
  O      -2.323834     -0.081336      1.134632
  C      -2.371402     -0.243405      4.012893
  C      -2.358027     -0.091474      5.381313
  C      -1.210377      0.374528      6.031878
  C      -0.076291      0.666961      5.279977
  C      -0.089506      0.501478      3.905602
  S      -1.322227      0.559979      7.770782
  C       0.286518      1.199483      8.233976
  H       0.168776      6.923068      4.640795
  H      -0.421295      5.261648      4.469998
  H      -0.782049      6.483769      3.214892
  H      -0.979012      4.313377      2.399318
  H      -1.316868      2.420913      0.908343
  H       2.849365      2.400935     -0.060231
  H       3.213679      4.291451      1.477036
  H      -3.264283     -0.585057      3.504625
  H      -3.244079     -0.325262      5.959774
  H       0.825327      1.032739      5.750990
  H       0.793421      0.749981      3.331553
  H       0.248964      1.327541      9.314792
  H       0.482445      2.167694      7.774327
  H       1.083932      0.497032      7.993811
36
Coordinates from ORCA-job /burg/berkelbach/users/eav2136/projects/peroxide_dissociation/05_range_separated_functional/wb97x-d-peroxide/wb97x-d-peroxide_opt E -1715.451815761382
  C      -0.054690      6.152359      3.891255
  S       1.516794      5.790243      3.107843
  C       1.145757      4.443321      2.044966
  C      -0.128256      3.914400      1.858193
  C      -0.316424      2.827451      1.022117
  C       0.757061      2.261173      0.350286
  C       2.024075      2.814408      0.499967
  C       2.219659      3.884489      1.348782
  C       0.590848      1.118399     -0.586793
  O      -0.072796     -0.009023     -0.137383
  O       0.970230      1.085343     -1.713961
  O      -0.060680     -0.079697      1.271285
  C      -1.325960     -0.036540      1.797640
  C      -1.235962      0.062753      3.273561
  O      -2.322388     -0.057088      1.143686
  C      -2.374395     -0.230247      4.021792
  C      -2.361045     -0.087973      5.391237
  C      -1.211560      0.367893      6.045738
  C      -0.076242      0.661897      5.296205
  C      -0.089628      0.506489      3.920684
  S      -1.321826      0.537354      7.786214
  C       0.297357      1.143710      8.257880
  H       0.150688      6.949445      4.604256
  H      -0.440322      5.288547      4.432448
  H      -0.792605      6.509128      3.173641
  H      -0.986675      4.336891      2.361150
  H      -1.315837      2.430946      0.885535
  H       2.858742      2.392133     -0.045704
  H       3.213752      4.296988      1.475670
  H      -3.268280     -0.565476      3.511023
  H      -3.248137     -0.322614      5.967748
  H       0.826815      1.020156      5.770139
  H       0.794750      0.754941      3.348867
  H       0.260721      1.260865      9.339934
  H       0.510262      2.113229      7.808691
  H       1.082673      0.430125      8.010936
36
Coordinates from ORCA-job /burg/berkelbach/users/eav2136/projects/peroxide_dissociation/05_range_separated_functional/wb97x-d-peroxide/wb97x-d-peroxide_opt E -1715.451808285289
  C      -0.033424      6.118674      3.923960
  S       1.524373      5.787499      3.100514
  C       1.149749      4.443370      2.035669
  C      -0.122944      3.907217      1.861146
  C      -0.313719      2.821463      1.024125
  C       0.755782      2.263182      0.339532
  C       2.021014      2.823706      0.477070
  C       2.219252      3.893112      1.325929
  C       0.586824      1.119018     -0.595132
  O      -0.068802     -0.010310     -0.138962
  O       0.960192      1.085306     -1.724392
  O      -0.055208     -0.072104      1.270238
  C      -1.321369     -0.047473      1.795966
  C      -1.235373      0.063496      3.271558
  O      -2.316522     -0.085788      1.140859
  C      -2.370895     -0.241007      4.019443
  C      -2.361836     -0.092635      5.388214
  C      -1.219600      0.380562      6.042920
  C      -0.087782      0.688509      5.293506
  C      -0.096619      0.526674      3.918621
  S      -1.335126      0.554209      7.782672
  C       0.281572      1.164161      8.258721
  H       0.176279      6.913797      4.637817
  H      -0.392391      5.245176      4.467779
  H      -0.793813      6.468600      3.226818
  H      -0.978206      4.323094      2.374741
  H      -1.311944      2.418512      0.898324
  H       2.852505      2.406818     -0.077507
  H       3.212218      4.311098      1.443236
  H      -3.259179     -0.590982      3.508849
  H      -3.246654     -0.336685      5.964242
  H       0.809050      1.062364      5.767221
  H       0.785058      0.785274      3.347145
  H       0.238143      1.291578      9.339308
  H       0.498055      2.129230      7.801805
  H       1.067816      0.447708      8.023574
36
Coordinates from ORCA-job /burg/berkelbach/users/eav2136/projects/peroxide_dissociation/05_range_separated_functional/wb97x-d-peroxide/wb97x-d-peroxide_opt E -1715.451812074450
  C      -0.037235      6.126717      3.917588
  S       1.525574      5.783560      3.108728
  C       1.150674      4.439890      2.043434
  C      -0.122973      3.907065      1.865415
  C      -0.314491      2.822677      1.026769
  C       0.755110      2.263104      0.343277
  C       2.021130      2.821175      0.483383
  C       2.220176      3.888750      1.334398
  C       0.585207      1.121056     -0.593828
  O      -0.072351     -0.008350     -0.140646
  O       0.957926      1.089720     -1.723348
  O      -0.057701     -0.075401      1.268287
  C      -1.323288     -0.045442      1.794976
  C      -1.235123      0.060483      3.270598
  O      -2.319261     -0.076331      1.140707
  C      -2.371260     -0.240666      4.018903
  C      -2.360313     -0.094774      5.387931
  C      -1.215582      0.372800      6.042359
  C      -0.082752      0.676245      5.292607
  C      -0.093455      0.516650      3.917494
  S      -1.329620      0.546072      7.782164
  C       0.282915      1.169278      8.255027
  H       0.170654      6.924076      4.629545
  H      -0.405150      5.257452      4.462369
  H      -0.790092      6.477283      3.212531
  H      -0.978457      4.324665      2.377399
  H      -1.313433      2.422319      0.898167
  H       2.852646      2.403754     -0.070776
  H       3.213751      4.304731      1.453747
  H      -3.261726     -0.585395      3.508483
  H      -3.245773     -0.335739      5.964324
  H       0.816140      1.045451      5.766149
  H       0.788857      0.772343      3.345620
  H       0.242299      1.291194      9.336397
  H       0.488406      2.138563      7.801916
  H       1.075049      0.461445      8.013436
36
Coordinates from ORCA-job /burg/berkelbach/users/eav2136/projects/peroxide_dissociation/05_range_separated_functional/wb97x-d-peroxide/wb97x-d-peroxide_opt E -1715.451818253734
  C      -0.049297      6.138971      3.903655
  S       1.519107      5.785864      3.110101
  C       1.147288      4.440767      2.045571
  C      -0.126430      3.909847      1.862121
  C      -0.315729      2.824369      1.024377
  C       0.756228      2.261751      0.347045
  C       2.022545      2.817711      0.492655
  C       2.219325      3.886250      1.343009
  C       0.588329      1.119449     -0.590121
  O      -0.071321     -0.009400     -0.138746
  O       0.964288      1.087521     -1.718548
  O      -0.057906     -0.078642      1.270113
  C      -1.323588     -0.042205      1.796185
  C      -1.235025      0.062260      3.271740
  O      -2.319468     -0.064204      1.141403
  C      -2.373015     -0.231989      4.019990
  C      -2.361011     -0.086673      5.389082
  C      -1.213260      0.373428      6.043575
  C      -0.078425      0.669489      5.293891
  C      -0.090351      0.510690      3.918733
  S      -1.325713      0.546120      7.783427
  C       0.292676      1.153636      8.256707
  H       0.156358      6.935805      4.616864
  H      -0.427476      5.272317      4.445622
  H      -0.793313      6.493211      3.191067
  H      -0.983726      4.330011      2.368961
  H      -1.314800      2.425836      0.891129
  H       2.856022      2.398126     -0.056915
  H       3.213056      4.300653      1.466515
  H      -3.265809     -0.570699      3.509582
  H      -3.247947     -0.322171      5.965491
  H       0.822977      1.032453      5.767507
  H       0.793610      0.760680      3.346848
  H       0.252047      1.278472      9.337755
  H       0.508578      2.119688      7.801498
  H       1.077650      0.437027      8.017640
