18
Coordinates from ORCA-job /burg/berkelbach/users/eav2136/projects/peroxide_dissociation/05_range_separated_functional/wb97x-v-radical-nmf/wb97x-v-radical-nmf_opt E -857.640930031874
  C      -0.074257      6.450078      3.546369
  S       1.489796      6.080482      2.755983
  C       1.149367      4.636622      1.833692
  C      -0.091366      4.003053      1.793384
  C      -0.258269      2.842695      1.059363
  C       0.800510      2.302714      0.339239
  C       2.028757      2.960408      0.342019
  C       2.207648      4.103303      1.091211
  C       0.662544      1.099418     -0.506902
  O       0.000000      0.000000      0.000000
  O       1.067139      0.987171     -1.623577
  H       0.104163      7.346077      4.140874
  H      -0.388823      5.643873      4.210020
  H      -0.853239      6.664434      2.813856
  H      -0.937000      4.405134      2.334216
  H      -1.235074      2.374970      1.027490
  H       2.845447      2.558826     -0.245767
  H       3.172953      4.596710      1.102483
18
Coordinates from ORCA-job /burg/berkelbach/users/eav2136/projects/peroxide_dissociation/05_range_separated_functional/wb97x-v-radical-nmf/wb97x-v-radical-nmf_opt E -857.661446414833
  C      -0.066584      6.450741      3.551531
  S       1.465814      6.044137      2.733491
  C       1.132098      4.626163      1.825532
  C      -0.123326      3.990321      1.788834
  C      -0.279831      2.840577      1.049884
  C       0.794500      2.311835      0.323424
  C       2.037383      2.961733      0.334962
  C       2.214416      4.098553      1.084848
  C       0.644152      1.088223     -0.510335
  O       0.014693      0.084592      0.068614
  O       1.122376      0.999638     -1.632772
  H       0.140797      7.348911      4.136974
  H      -0.375248      5.646697      4.222331
  H      -0.850287      6.669182      2.823712
  H      -0.971058      4.387266      2.333649
  H      -1.249828      2.356413      1.021197
  H       2.858784      2.557648     -0.246704
  H       3.181443      4.593337      1.104781
18
Coordinates from ORCA-job /burg/berkelbach/users/eav2136/projects/peroxide_dissociation/05_range_separated_functional/wb97x-v-radical-nmf/wb97x-v-radical-nmf_opt E -857.666472529615
  C      -0.069264      6.450069      3.542954
  S       1.441706      6.017016      2.707490
  C       1.124301      4.620210      1.825159
  C      -0.138304      3.972011      1.791939
  C      -0.275173      2.825946      1.056200
  C       0.815614      2.307831      0.328818
  C       2.062263      2.964042      0.342967
  C       2.229393      4.100877      1.087433
  C       0.654568      1.048021     -0.485660
  O      -0.030461      0.189413      0.076113
  O       1.084475      1.042177     -1.657884
  H       0.157888      7.351971      4.114947
  H      -0.369273      5.649385      4.222076
  H      -0.855599      6.664039      2.816552
  H      -0.987810      4.365275      2.337129
  H      -1.233394      2.319213      1.026815
  H       2.888715      2.561821     -0.232473
  H       3.190651      4.606650      1.113377
18
Coordinates from ORCA-job /burg/berkelbach/users/eav2136/projects/peroxide_dissociation/05_range_separated_functional/wb97x-v-radical-nmf/wb97x-v-radical-nmf_opt E -857.666650555353
  C      -0.057306      6.452525      3.557126
  S       1.446032      6.010202      2.710024
  C       1.114605      4.623884      1.822664
  C      -0.153490      3.984485      1.784632
  C      -0.299338      2.844908      1.040667
  C       0.785700      2.322059      0.307826
  C       2.037114      2.967435      0.329480
  C       2.214987      4.097574      1.081396
  C       0.603541      1.053567     -0.509905
  O       0.051670      0.130031      0.097374
  O       1.184705      1.013600     -1.618999
  H       0.182959      7.348124      4.132371
  H      -0.360106      5.650061      4.232460
  H      -0.844951      6.677752      2.836046
  H      -0.996681      4.382872      2.335053
  H      -1.258426      2.340543      1.009926
  H       2.859874      2.560745     -0.247776
  H       3.179408      4.595602      1.113586
18
Coordinates from ORCA-job /burg/berkelbach/users/eav2136/projects/peroxide_dissociation/05_range_separated_functional/wb97x-v-radical-nmf/wb97x-v-radical-nmf_opt E -857.667661023338
  C      -0.065695      6.461600      3.552967
  S       1.450201      6.029595      2.717399
  C       1.122934      4.626710      1.828590
  C      -0.136551      3.978683      1.791114
  C      -0.279588      2.836182      1.045926
  C       0.801220      2.320155      0.308251
  C       2.046742      2.969455      0.335402
  C       2.219494      4.101080      1.089176
  C       0.630592      1.046127     -0.503811
  O      -0.016509      0.093344      0.061690
  O       1.135949      1.025726     -1.644270
  H       0.163258      7.361448      4.126353
  H      -0.368398      5.661156      4.230488
  H      -0.851932      6.678783      2.827913
  H      -0.980027      4.372823      2.344189
  H      -1.235340      2.324302      1.021724
  H       2.871760      2.566197     -0.241457
  H       3.182183      4.602601      1.122309
18
Coordinates from ORCA-job /burg/berkelbach/users/eav2136/projects/peroxide_dissociation/05_range_separated_functional/wb97x-v-radical-nmf/wb97x-v-radical-nmf_opt E -857.668750965613
  C      -0.067258      6.462821      3.544557
  S       1.447464      6.019481      2.715128
  C       1.122649      4.620051      1.833236
  C      -0.138217      3.969799      1.800111
  C      -0.278590      2.828481      1.055798
  C       0.804477      2.315750      0.315430
  C       2.049926      2.967201      0.336768
  C       2.221907      4.097892      1.090327
  C       0.629998      1.047281     -0.502174
  O      -0.016836      0.130925      0.053628
  O       1.129290      1.042652     -1.648380
  H       0.165736      7.362717      4.116657
  H      -0.375606      5.664153      4.221911
  H      -0.848616      6.682127      2.814703
  H      -0.980733      4.362773      2.356051
  H      -1.232882      2.313730      1.030907
  H       2.873932      2.566388     -0.243281
  H       3.183656      4.601748      1.122579
18
Coordinates from ORCA-job /burg/berkelbach/users/eav2136/projects/peroxide_dissociation/05_range_separated_functional/wb97x-v-radical-nmf/wb97x-v-radical-nmf_opt E -857.668770961860
  C      -0.063154      6.457196      3.554664
  S       1.440750      6.034139      2.694517
  C       1.117348      4.628827      1.821145
  C      -0.144312      3.980264      1.785447
  C      -0.282639      2.834647      1.047349
  C       0.802950      2.315521      0.315247
  C       2.049217      2.964282      0.339909
  C       2.219458      4.098731      1.088276
  C       0.627539      1.043686     -0.498810
  O      -0.017936      0.125708      0.055361
  O       1.147587      1.034043     -1.636241
  H       0.168179      7.363230      4.117505
  H      -0.344135      5.656931      4.241886
  H      -0.863087      6.660613      2.840588
  H      -0.987933      4.378906      2.335520
  H      -1.237143      2.320453      1.020092
  H       2.875520      2.558294     -0.233139
  H       3.182087      4.600498      1.124637
18
Coordinates from ORCA-job /burg/berkelbach/users/eav2136/projects/peroxide_dissociation/05_range_separated_functional/wb97x-v-radical-nmf/wb97x-v-radical-nmf_opt E -857.668738846283
  C      -0.070331      6.476314      3.530499
  S       1.455291      6.006885      2.733619
  C       1.126174      4.608764      1.849987
  C      -0.132374      3.953886      1.823394
  C      -0.275148      2.817463      1.071977
  C       0.801812      2.314017      0.316650
  C       2.044694      2.968147      0.333172
  C       2.219907      4.092928      1.095020
  C       0.617111      1.054627     -0.516685
  O      -0.011171      0.118468      0.027266
  O       1.135339      1.068866     -1.655493
  H       0.167525      7.370176      4.109669
  H      -0.408151      5.681709      4.198301
  H      -0.830544      6.711708      2.783724
  H      -0.968680      4.342120      2.391685
  H      -1.226649      2.297468      1.050471
  H       2.864910      2.573812     -0.256396
  H       3.180581      4.598611      1.127092
18
Coordinates from ORCA-job /burg/berkelbach/users/eav2136/projects/peroxide_dissociation/05_range_separated_functional/wb97x-v-radical-nmf/wb97x-v-radical-nmf_opt E -857.668803478412
  C      -0.067013      6.465772      3.543401
  S       1.446778      6.023809      2.709712
  C       1.121577      4.620087      1.833711
  C      -0.138400      3.968158      1.802729
  C      -0.278102      2.826052      1.059519
  C       0.803808      2.313970      0.317082
  C       2.048496      2.965158      0.338073
  C       2.220315      4.095863      1.091805
  C       0.624139      1.048409     -0.506329
  O      -0.019953      0.124338      0.039110
  O       1.139318      1.052339     -1.646238
  H       0.166617      7.367724      4.111809
  H      -0.370991      5.668179      4.223876
  H      -0.850949      6.681052      2.815226
  H      -0.978743      4.362554      2.360847
  H      -1.230953      2.308593      1.035060
  H       2.872415      2.564185     -0.241844
  H       3.181936      4.599726      1.126404
18
Coordinates from ORCA-job /burg/berkelbach/users/eav2136/projects/peroxide_dissociation/05_range_separated_functional/wb97x-v-radical-nmf/wb97x-v-radical-nmf_opt E -857.668804268577
  C      -0.066956      6.465948      3.543364
  S       1.446136      6.025276      2.707508
  C       1.121282      4.620307      1.833317
  C      -0.138557      3.968081      1.802778
  C      -0.277901      2.825571      1.060177
  C       0.804069      2.313432      0.317780
  C       2.048783      2.964449      0.338932
  C       2.220252      4.095510      1.092188
  C       0.623855      1.048657     -0.506741
  O      -0.021597      0.124239      0.036149
  O       1.139900      1.054346     -1.646351
  H       0.166374      7.369018      4.110120
  H      -0.368425      5.668760      4.225398
  H      -0.852420      6.679014      2.816196
  H      -0.978729      4.363022      2.360765
  H      -1.230507      2.307644      1.035685
  H       2.872923      2.563213     -0.240460
  H       3.181815      4.599479      1.127148
18
Coordinates from ORCA-job /burg/berkelbach/users/eav2136/projects/peroxide_dissociation/05_range_separated_functional/wb97x-v-radical-nmf/wb97x-v-radical-nmf_opt E -857.668804845279
  C      -0.067116      6.466659      3.542625
  S       1.445928      6.025774      2.706607
  C       1.121225      4.619951      1.833679
  C      -0.138401      3.967240      1.803886
  C      -0.277533      2.824630      1.061452
  C       0.804264      2.312951      0.318405
  C       2.048976      2.963930      0.339522
  C       2.220227      4.095072      1.092676
  C       0.623495      1.049254     -0.507566
  O      -0.022934      0.124175      0.032848
  O       1.139923      1.056955     -1.647098
  H       0.166255      7.370164      4.108670
  H      -0.368160      5.669832      4.225255
  H      -0.852729      6.679055      2.815432
  H      -0.978199      4.362284      2.362357
  H      -1.229783      2.306020      1.037195
  H       2.873190      2.562747     -0.239773
  H       3.181668      4.599276      1.127780
