18
Coordinates from ORCA-job /burg/berkelbach/users/eav2136/projects/peroxide_dissociation/05_range_separated_functional/wb97x-d-radical-dmso/wb97x-d-radical-dmso_opt E -857.709434857166
  C      -0.074257      6.450078      3.546369
  S       1.489796      6.080482      2.755983
  C       1.149367      4.636622      1.833692
  C      -0.091366      4.003053      1.793384
  C      -0.258269      2.842695      1.059363
  C       0.800510      2.302714      0.339239
  C       2.028757      2.960408      0.342019
  C       2.207648      4.103303      1.091211
  C       0.662544      1.099418     -0.506902
  O       0.000000      0.000000      0.000000
  O       1.067139      0.987171     -1.623577
  H       0.104163      7.346077      4.140874
  H      -0.388823      5.643873      4.210020
  H      -0.853239      6.664434      2.813856
  H      -0.937000      4.405134      2.334216
  H      -1.235074      2.374970      1.027490
  H       2.845447      2.558826     -0.245767
  H       3.172953      4.596710      1.102483
18
Coordinates from ORCA-job /burg/berkelbach/users/eav2136/projects/peroxide_dissociation/05_range_separated_functional/wb97x-d-radical-dmso/wb97x-d-radical-dmso_opt E -857.713670043346
  C      -0.070495      6.444391      3.565535
  S       1.473417      6.096825      2.724319
  C       1.138528      4.643054      1.810773
  C      -0.101188      4.006118      1.776751
  C      -0.267134      2.846093      1.041691
  C       0.793408      2.315617      0.316575
  C       2.032227      2.956982      0.338076
  C       2.204548      4.103665      1.079810
  C       0.646736      1.110383     -0.514692
  O      -0.033778      0.084117      0.009230
  O       1.143881      0.908024     -1.590965
  H       0.109210      7.350950      4.143333
  H      -0.343959      5.641868      4.249743
  H      -0.878347      6.634413      2.859825
  H      -0.947244      4.406774      2.317740
  H      -1.239376      2.367515      1.019582
  H       2.857777      2.546684     -0.231182
  H       3.172083      4.592495      1.097807
18
Coordinates from ORCA-job /burg/berkelbach/users/eav2136/projects/peroxide_dissociation/05_range_separated_functional/wb97x-d-radical-dmso/wb97x-d-radical-dmso_opt E -857.714050670178
  C      -0.083872      6.445849      3.561404
  S       1.458867      6.099089      2.714652
  C       1.141087      4.634244      1.807437
  C      -0.091987      3.984026      1.783272
  C      -0.248012      2.825200      1.043464
  C       0.820323      2.315393      0.312753
  C       2.059816      2.961688      0.334513
  C       2.216784      4.107996      1.075626
  C       0.668570      1.098703     -0.486400
  O      -0.126875      0.237134     -0.008682
  O       1.099607      0.851594     -1.602815
  H       0.096515      7.353288      4.137527
  H      -0.352679      5.645452      4.248588
  H      -0.894108      6.635761      2.860188
  H      -0.939487      4.372816      2.330763
  H      -1.210397      2.326614      1.029611
  H       2.895498      2.557216     -0.223499
  H       3.180644      4.603906      1.095551
18
Coordinates from ORCA-job /burg/berkelbach/users/eav2136/projects/peroxide_dissociation/05_range_separated_functional/wb97x-d-radical-dmso/wb97x-d-radical-dmso_opt E -857.715968548838
  C      -0.078506      6.443654      3.561092
  S       1.469835      6.091498      2.728813
  C       1.142559      4.634754      1.815427
  C      -0.093585      3.991668      1.788921
  C      -0.259021      2.839978      1.039964
  C       0.803474      2.325645      0.303945
  C       2.042224      2.972099      0.321132
  C       2.210404      4.111009      1.073343
  C       0.644482      1.103736     -0.496214
  O      -0.096327      0.173802     -0.000531
  O       1.155695      0.835593     -1.572669
  H       0.107572      7.337831      4.155942
  H      -0.367747      5.633597      4.229750
  H      -0.877156      6.657842      2.852135
  H      -0.936866      4.381357      2.342480
  H      -1.225689      2.351201      1.021742
  H       2.872617      2.567777     -0.244740
  H       3.176331      4.602928      1.093420
18
Coordinates from ORCA-job /burg/berkelbach/users/eav2136/projects/peroxide_dissociation/05_range_separated_functional/wb97x-d-radical-dmso/wb97x-d-radical-dmso_opt E -857.716307737547
  C      -0.071138      6.430184      3.579256
  S       1.457576      6.115487      2.697591
  C       1.135126      4.651387      1.794774
  C      -0.101611      4.009838      1.764199
  C      -0.262349      2.850817      1.025619
  C       0.805090      2.327257      0.303470
  C       2.044627      2.970345      0.327367
  C       2.208614      4.117286      1.069155
  C       0.647952      1.093980     -0.479757
  O      -0.133021      0.175185     -0.021217
  O       1.189031      0.806933     -1.538621
  H       0.103251      7.344670      4.146220
  H      -0.304755      5.626610      4.276797
  H      -0.902867      6.597301      2.895878
  H      -0.948968      4.407011      2.305846
  H      -1.230901      2.365774      1.000674
  H       2.879332      2.558491     -0.226862
  H       3.175307      4.607413      1.093564
18
Coordinates from ORCA-job /burg/berkelbach/users/eav2136/projects/peroxide_dissociation/05_range_separated_functional/wb97x-d-radical-dmso/wb97x-d-radical-dmso_opt E -857.717539011682
  C      -0.069800      6.429854      3.581188
  S       1.453457      6.130000      2.685873
  C       1.135494      4.660426      1.790891
  C      -0.096176      4.009433      1.772540
  C      -0.253149      2.847386      1.038434
  C       0.811078      2.330103      0.307624
  C       2.044078      2.978830      0.323879
  C       2.207166      4.130526      1.062239
  C       0.635880      1.083044     -0.444473
  O      -0.223205      0.179031     -0.152444
  O       1.256135      0.755980     -1.462488
  H       0.101534      7.347504      4.144268
  H      -0.287896      5.625995      4.283267
  H      -0.910120      6.586735      2.905428
  H      -0.941510      4.402642      2.319263
  H      -1.221629      2.360979      1.012692
  H       2.878279      2.570827     -0.234901
  H       3.170681      4.626673      1.080672
18
Coordinates from ORCA-job /burg/berkelbach/users/eav2136/projects/peroxide_dissociation/05_range_separated_functional/wb97x-d-radical-dmso/wb97x-d-radical-dmso_opt E -857.718035823297
  C      -0.062799      6.429378      3.590074
  S       1.446639      6.141855      2.667924
  C       1.130455      4.663813      1.785667
  C      -0.100682      4.010603      1.773886
  C      -0.256011      2.845554      1.044531
  C       0.808725      2.328526      0.313055
  C       2.039144      2.979134      0.322761
  C       2.201498      4.133840      1.056937
  C       0.619467      1.084331     -0.430626
  O      -0.275894      0.217779     -0.277675
  O       1.338365      0.699183     -1.380767
  H       0.095920      7.371059      4.116104
  H      -0.239890      5.645838      4.325843
  H      -0.923490      6.538232      2.930588
  H      -0.944826      4.404151      2.322505
  H      -1.223018      2.356301      1.021153
  H       2.873210      2.573582     -0.238021
  H       3.163485      4.632810      1.070011
18
Coordinates from ORCA-job /burg/berkelbach/users/eav2136/projects/peroxide_dissociation/05_range_separated_functional/wb97x-d-radical-dmso/wb97x-d-radical-dmso_opt E -857.718664915762
  C      -0.066570      6.439430      3.580677
  S       1.451712      6.130484      2.679389
  C       1.131365      4.656039      1.791695
  C      -0.098241      3.998364      1.788314
  C      -0.255617      2.835495      1.056572
  C       0.806032      2.323615      0.316588
  C       2.035245      2.979364      0.316080
  C       2.197866      4.132773      1.050119
  C       0.624308      1.089775     -0.442652
  O      -0.290612      0.247483     -0.288841
  O       1.368070      0.693466     -1.370701
  H       0.112425      7.356259      4.142630
  H      -0.286704      5.637329      4.284244
  H      -0.908461      6.601748      2.908847
  H      -0.938242      4.384565      2.348814
  H      -1.216956      2.335450      1.049260
  H       2.866462      2.579094     -0.252306
  H       3.158212      4.635236      1.055224
18
Coordinates from ORCA-job /burg/berkelbach/users/eav2136/projects/peroxide_dissociation/05_range_separated_functional/wb97x-d-radical-dmso/wb97x-d-radical-dmso_opt E -857.719005044000
  C      -0.067839      6.442706      3.574285
  S       1.456438      6.124933      2.685681
  C       1.132638      4.653931      1.793477
  C      -0.093977      3.989241      1.804509
  C      -0.254605      2.827743      1.072684
  C       0.800961      2.320304      0.322711
  C       2.027034      2.984236      0.304494
  C       2.191199      4.139349      1.034454
  C       0.625988      1.093940     -0.445374
  O      -0.353549      0.318294     -0.383735
  O       1.449459      0.635183     -1.280488
  H       0.120593      7.341662      4.161143
  H      -0.313586      5.627627      4.254197
  H      -0.897268      6.638290      2.896223
  H      -0.927651      4.367468      2.380198
  H      -1.208063      2.313303      1.087890
  H       2.854064      2.589830     -0.273928
  H       3.148458      4.647928      1.025529
18
Coordinates from ORCA-job /burg/berkelbach/users/eav2136/projects/peroxide_dissociation/05_range_separated_functional/wb97x-d-radical-dmso/wb97x-d-radical-dmso_opt E -857.719079735346
  C      -0.071022      6.450692      3.565787
  S       1.464184      6.112268      2.704112
  C       1.138227      4.644013      1.808333
  C      -0.086181      3.975384      1.824963
  C      -0.249699      2.817984      1.087016
  C       0.799634      2.319211      0.323423
  C       2.023716      2.986936      0.300349
  C       2.191766      4.136946      1.037688
  C       0.624767      1.098346     -0.455142
  O      -0.374867      0.342599     -0.429587
  O       1.462698      0.627407     -1.268117
  H       0.112010      7.359877      4.138531
  H      -0.328338      5.649112      4.257198
  H      -0.890734      6.635612      2.872738
  H      -0.916664      4.348389      2.408296
  H      -1.202472      2.301868      1.105199
  H       2.846402      2.599973     -0.289234
  H       3.146870      4.649351      1.022402
18
Coordinates from ORCA-job /burg/berkelbach/users/eav2136/projects/peroxide_dissociation/05_range_separated_functional/wb97x-d-radical-dmso/wb97x-d-radical-dmso_opt E -857.719113150014
  C      -0.069498      6.448682      3.569052
  S       1.462636      6.115099      2.700315
  C       1.136783      4.646588      1.805358
  C      -0.086444      3.976222      1.824367
  C      -0.250113      2.818628      1.086466
  C       0.798618      2.319750      0.322611
  C       2.022394      2.988178      0.299382
  C       2.190615      4.138989      1.035530
  C       0.626020      1.096881     -0.454383
  O      -0.387404      0.359800     -0.457799
  O       1.478212      0.603748     -1.237180
  H       0.110703      7.362986      4.134555
  H      -0.317650      5.650299      4.267463
  H      -0.894124      6.623243      2.878951
  H      -0.916403      4.348330      2.408910
  H      -1.203376      2.303184      1.104338
  H       2.844474      2.602458     -0.291934
  H       3.144853      4.652903      1.017951
18
Coordinates from ORCA-job /burg/berkelbach/users/eav2136/projects/peroxide_dissociation/05_range_separated_functional/wb97x-d-radical-dmso/wb97x-d-radical-dmso_opt E -857.719134646643
  C      -0.068975      6.446401      3.570237
  S       1.462143      6.116577      2.698525
  C       1.136549      4.648167      1.803848
  C      -0.085850      3.976691      1.824643
  C      -0.250040      2.819490      1.086174
  C       0.798068      2.321020      0.321693
  C       2.021217      2.990512      0.297026
  C       2.189591      4.142180      1.031678
  C       0.627382      1.095862     -0.451976
  O      -0.399161      0.376279     -0.481408
  O       1.490738      0.581278     -1.205368
  H       0.111252      7.359086      4.138291
  H      -0.316409      5.645871      4.266469
  H      -0.893898      6.622621      2.880935
  H      -0.914686      4.346830      2.412071
  H      -1.202919      2.303392      1.106017
  H       2.842398      2.605998     -0.296453
  H       3.142896      4.657713      1.011550
18
Coordinates from ORCA-job /burg/berkelbach/users/eav2136/projects/peroxide_dissociation/05_range_separated_functional/wb97x-d-radical-dmso/wb97x-d-radical-dmso_opt E -857.719124825375
  C      -0.066100      6.437194      3.578327
  S       1.458292      6.123757      2.689032
  C       1.133716      4.655911      1.793608
  C      -0.088493      3.984545      1.814459
  C      -0.252066      2.825938      1.078196
  C       0.797560      2.324651      0.318362
  C       2.019984      2.995502      0.291316
  C       2.187043      4.150378      1.020928
  C       0.631231      1.091651     -0.442482
  O      -0.417432      0.405447     -0.515184
  O       1.513775      0.531252     -1.133685
  H       0.114062      7.345908      4.152616
  H      -0.302855      5.629316      4.269815
  H      -0.897934      6.614534      2.897730
  H      -0.917038      4.353803      2.402790
  H      -1.204305      2.308838      1.100773
  H       2.841345      2.609992     -0.301342
  H       3.139510      4.667352      0.998695
18
Coordinates from ORCA-job /burg/berkelbach/users/eav2136/projects/peroxide_dissociation/05_range_separated_functional/wb97x-d-radical-dmso/wb97x-d-radical-dmso_opt E -857.719130650475
  C      -0.066376      6.437802      3.578567
  S       1.458069      6.123589      2.689400
  C       1.133469      4.656063      1.792993
  C      -0.089067      3.985093      1.812866
  C      -0.251934      2.825961      1.077274
  C       0.798400      2.324377      0.318174
  C       2.020872      2.995139      0.291469
  C       2.187205      4.150108      1.021231
  C       0.630776      1.091031     -0.441915
  O      -0.414132      0.398626     -0.503096
  O       1.510043      0.536728     -1.143752
  H       0.115821      7.343718      4.156659
  H      -0.305398      5.627697      4.266659
  H      -0.897643      6.620078      2.898631
  H      -0.918393      4.355313      2.399480
  H      -1.204107      2.308770      1.099243
  H       2.842781      2.609166     -0.300019
  H       3.139908      4.666709      1.000088
18
Coordinates from ORCA-job /burg/berkelbach/users/eav2136/projects/peroxide_dissociation/05_range_separated_functional/wb97x-d-radical-dmso/wb97x-d-radical-dmso_opt E -857.719127284444
  C      -0.066139      6.436088      3.580453
  S       1.457287      6.124647      2.688347
  C       1.132975      4.657672      1.790569
  C      -0.089927      3.987264      1.809301
  C      -0.251976      2.827482      1.074642
  C       0.799368      2.325035      0.317226
  C       2.021680      2.996011      0.290261
  C       2.186994      4.151638      1.019327
  C       0.630853      1.089648     -0.439192
  O      -0.415741      0.399564     -0.499479
  O       1.510914      0.530474     -1.136831
  H       0.117147      7.339555      4.162018
  H      -0.303958      5.623122      4.265601
  H      -0.898773      6.621215      2.903002
  H      -0.920111      4.358482      2.394053
  H      -1.203991      2.310065      1.096304
  H       2.844050      2.609620     -0.300249
  H       3.139644      4.668388      0.998601
18
Coordinates from ORCA-job /burg/berkelbach/users/eav2136/projects/peroxide_dissociation/05_range_separated_functional/wb97x-d-radical-dmso/wb97x-d-radical-dmso_opt E -857.719129132957
  C      -0.066480      6.436436      3.579843
  S       1.457692      6.124028      2.689347
  C       1.133403      4.657141      1.791336
  C      -0.089494      3.986661      1.810159
  C      -0.251505      2.827045      1.075279
  C       0.799718      2.324928      0.317386
  C       2.021947      2.995942      0.290339
  C       2.187238      4.151343      1.019828
  C       0.630288      1.089959     -0.439550
  O      -0.416288      0.399969     -0.499337
  O       1.509987      0.531478     -1.138698
  H       0.116426      7.340490      4.160617
  H      -0.304500      5.624102      4.265677
  H      -0.898887      6.620733      2.901877
  H      -0.919732      4.357934      2.394795
  H      -1.203469      2.309532      1.096773
  H       2.844174      2.609941     -0.300633
  H       3.139778      4.668305      0.998916
