! UKS wB97X-D3 def2-TZVP TIGHTSCF Opt CPCM PAL8
%maxcore 5000
%cpcm
smd true
SMDsolvent "DMSO"
end
* xyz 0 2
 C -0.07425707479814 6.45007760366319 3.54636897867849
 S 1.48979584793712 6.08048225687873 2.75598260255209
 C 1.14936654141856 4.63662227087222 1.83369205968326
 C -0.09136557109480 4.00305286554088 1.79338352444578
 C -0.25826928718407 2.84269542505768 1.05936282240646
 C 0.80050967676942 2.30271389692801 0.33923873907232
 C 2.02875697338567 2.96040825022008 0.34201900047512
 C 2.20764771123846 4.10330343094754 1.09121055149825
 C 0.66254428710301 1.09941809961861 -0.50690159852297
 O 0.00000000000000 0.00000000000000 0.00000000000000
 O 1.06713866538631 0.98717129960580 -1.62357736506780
 H 0.10416325535368 7.34607684664392 4.14087383255362
 H -0.38882275224257 5.64387294862163 4.21002028523424
 H -0.85323854703301 6.66443357654391 2.81385647784552
 H -0.93700004363157 4.40513362395569 2.33421606140266
 H -1.23507439683237 2.37497021944690 1.02749021968162
 H 2.84544686618639 2.55882587909200 -0.24576673820719
 H 3.17295340310622 4.59670965109571 1.10248346369500
*
